<?xml version="1.0" encoding="UTF-8"?>

<!-- generated on Mon Nov  8 23:44:46 2021 by SUMO duarouter Version 0.32.0
<?xml version="1.0" encoding="UTF-8"?>

<configuration xmlns:xsi="http://www.w3.org/2001/XMLSchema-instance" xsi:noNamespaceSchemaLocation="http://sumo.dlr.de/xsd/duarouterConfiguration.xsd">

    <input>
        <net-file value="colonia_ls.net.xml"/>
        <route-files value="trips.trips.xml"/>
    </input>

    <output>
        <output-file value="colonia_ls.rou.xml"/>
        <alternatives-output value="colonia_ls.rou.alt.xml"/>
    </output>

    <processing>
        <ignore-errors value="true"/>
    </processing>

    <time>
        <begin value="0"/>
        <end value="200.0"/>
    </time>

    <report>
        <no-warnings value="true"/>
        <no-step-log value="true"/>
    </report>

</configuration>
-->

<routes xmlns:xsi="http://www.w3.org/2001/XMLSchema-instance" xsi:noNamespaceSchemaLocation="http://sumo.dlr.de/xsd/routes_file.xsd">
    <vehicle id="0" depart="0.00">
        <route edges="22949500#0 22949500#1 22949500#2 23014986#0 -154502570 -47149088#2 -47149088#1 -47149088#0 494470561#0 494470561#1 -23014989 364957117 23013528#0 23013528#1 48012544#0 48012544#1 48012544#2 48012544#3 877599645 203322740#0 203322740#1 203322740#2 -154511600#2 -154511600#1 23013529#0 -23013529#0"/>
    </vehicle>
    <vehicle id="1" depart="1.00">
        <route edges="23686956#2 -22873505#1 -22873505#0 200671461 533123612#0 533123612#1 533123612#2 136413965#0 136413965#1 136413965#2 136413965#3 667410648 169453890#0 169453890#1 169453890#2 186602851 145345138 402179132 37873574 175589820 315921077#0 315921077#1 315921077#2 315921077#3 -315921078#3 -315921078#2 -315921078#1 -315921078#0 -219188460#6 -219188460#5 -219188460#4 -219188460#3 -219188460#2 -219188460#1 -219188460#0 -154755109#1 -154755109#0 -202654192#2 -202654192#1 -202654192#0"/>
    </vehicle>
    <vehicle id="3" depart="3.00">
        <route edges="9872554#0 169455025 -479545489#1 -479545489#0 -32008097#1 -32008097#0 -32007885#4 32007885#4 31951737#0 31951737#1 31951737#2 32902927 179639808 179639807 636113045 23014984 23487155#0 23487155#1 23487155#2 216475699#1 216475699#2 216475699#3 216475699#4 500272217#0 500272217#1 500272215#0 500272215#1 500272213#0 500272213#1 500272213#2 500272213#3 500272213#4 857524010 9615451#0"/>
    </vehicle>
    <vehicle id="4" depart="4.00">
        <route edges="29432729#0 29432729#1 538102222 568235970 568235967 22949500#0 22949500#1 22949500#2 31951782#0 31951782#1 636113045 23014984 22949994#0 22949994#1 52303559#0 52303559#1 52303559#2 32029471 -39764938#1 -39764938#0 -23487153#2 -23487153#1 -23487153#0 154755110#0 154755110#1 86415855 86415860#0 86415860#1 23487136#0 23487136#1"/>
    </vehicle>
    <vehicle id="6" depart="6.00">
        <route edges="24693834#0 24693834#1 51767045#0 51767045#1 51767045#2 23015816#0 23015816#1 23015816#2 23015816#3 23015816#4 23015816#5 543524596#4 480054079 9872533#0 9872533#1 22598774 32011876 23013527#0 23013527#1 23013527#2 -154511600#2 -154511600#1 -154511600#0 88235135#0 88235135#1 995953631 32007885#0 32007885#1 32007885#2 32007885#3 32007885#4 32008097#0 -32008097#0"/>
    </vehicle>
    <vehicle id="9" depart="9.00">
        <route edges="29432729#0 29432729#1 538102222 568235970 568235967 22949500#0 22949500#1 22949500#2 31951782#0 31951782#1 636113045 23014984 22949994#0 22949994#1 52303559#0 52303559#1 52303559#2 32029471 -39764938#1 -39764938#0 -23487153#2 -23487153#1 -23487153#0 154755110#0 154755110#1 86415855 86415848 175589819#0 175589819#1 175589819#2 154333001#0 154333001#1 169453888#0 169453888#1 169453888#2 130176207 186602851 145345146#0 145345146#1 169453895 169453894 32902676 329887688 22949651 164158186 22949649#0 22949649#1 22949649#2 34998404#0 34998404#1 34998404#2 154502573#0 154502573#1 154502572#0 154502572#1 154502572#2 154502572#3 154502572#4"/>
    </vehicle>
    <vehicle id="10" depart="10.00">
        <route edges="154502577 150039005#0 150039005#1 4534449 169465736 169465737 198171539#2 169465734#0 169465734#1 169465735#0 169465735#1 501456678 145345140#0 145345140#1 169453895 169453894 32902676 329887688 22949651 381068419 381068422 32902674 22949648 154502587 154502582"/>
    </vehicle>
    <vehicle id="11" depart="11.00">
        <route edges="160012546 500272209 37873750 494282520 37873758 364957117 494282521#0 494282521#1 485710967 485710968 22949501 568235982 568235978 500272190 485710969 5172432#0 5172432#1 5172432#2"/>
    </vehicle>
    <vehicle id="12" depart="12.00">
        <route edges="52336762 -52336762 22598791#0 22598791#1 32903236#1 31951782#0 31951782#1 636113045 23014984 22949994#0 22949994#1 52303559#0 52303559#1 52303559#2 32029471 -39764938#1 -39764938#0 -23487153#2 -23487153#1 -23487153#0 154755110#0 154755110#1 86415855 86415848 175589819#0 175589819#1 175589819#2 154333001#0 154333001#1 169453888#0 169453888#1 169453888#2 130176207 186602851 145345146#0 145345146#1 169453895 665030635#0 665030635#1 32902722#0 32902722#1 32902722#2 32902722#3 32902722#4 32902722#5 32902722#6 32902722#7"/>
    </vehicle>
    <vehicle id="13" depart="13.00">
        <route edges="32902927 179639808 179639807 636113045 23014984 22949994#0 22949994#1 52303559#0 52303559#1 52303559#2 32029471 -39764938#1 -39764938#0 -23487153#2 -23487153#1 -23487153#0 154755110#0 154755110#1 86415855 86415848 175589819#0 175589819#1 175589819#2 154333001#0 154333001#1 169453888#0 169453888#1 169453888#2 130176207 186602851 145345146#0 145345146#1 169453895 665030635#0 665030635#1 32902722#0 32902722#1 32902722#2 32902722#3 32902722#4 32902722#5 32902722#6 32902722#7 32902722#8 150039005#0 150039005#1 4534449 169465736 169465737 198171539#2 169465734#0 169465734#1 169465735#0 169465735#1"/>
    </vehicle>
    <vehicle id="14" depart="14.00">
        <route edges="364957117 23013528#0 23013528#1 48012544#0 48012544#1 48012544#2 48012544#3 877599645 203322740#0 203322740#1 203322740#2 -154511600#2 -154511600#1 -154511600#0 88235135#0 88235135#1 995953631 32007885#0 32007885#1 32007885#2 32007885#3 32007885#4 32008097#0 32008097#1 479545489#0 479545489#1 169455026 187070212#0 187070212#1 37873571#0 37873571#1 37873571#2 187070213#0 187070213#1 402179132 37873574 175589820 315921077#0 315921077#1 315921077#2 315921077#3 154755110#0 154755110#1 86415855 86415848 175589819#0 175589819#1 175589819#2 154333001#0 154333001#1 169453888#0 169453888#1 169453888#2 130176207 186602851 145345146#0 145345146#1 169453895 169453894 32902676 329887688 22949651 164158186 22949649#0 22949649#1 22949649#2 34998404#0 34998404#1 34998404#2 154502573#0 154502573#1 51767045#1 51767045#2 -37744760 25326177"/>
    </vehicle>
    <vehicle id="15" depart="15.00">
        <route edges="-23487136#0 88680005#0 88680005#1 154470575 203971499#0 203971499#1 203971499#2 203971500 136413965#0 136413965#1 136413965#2 136413965#3 667410648 169453890#0 169453890#1 169453890#2 186602851 145345146#0 145345146#1 169453895 169453894 32902676 329887688 22949651 381068419 381068422 32902674 22949648 154502587 154502582 480054082 154502586 480054085 485710970 485710969 5172432#0 5172432#1 5172432#2"/>
    </vehicle>
    <vehicle id="16" depart="16.00">
        <route edges="22949500#0 22949500#1 22949500#2 31951782#0 31951782#1 636113045 23014984 22949994#0 22949994#1 52303559#0 52303559#1 52303559#2 32029471 -39764938#1 -39764938#0 -23487153#2 -23487153#1 -23487153#0 154755110#0 154755110#1 86415855 86415860#0 86415860#1 88680005#0 88680005#1 154470575 203971499#0 203971499#1 203971499#2 203971501#0 203971501#1 727302499 4400318#0 4400318#1 4400318#2 -121935993#2"/>
    </vehicle>
    <vehicle id="17" depart="17.00">
        <route edges="216475696 216475698 23487156 23487155#1 23487155#2 216475699#1 216475699#2 216475699#3 216475699#4 500272217#0 500272217#1 500272215#0 500272215#1 500272213#0 500272213#1 500272213#2 500272213#3 500272213#4 857524010 9615451#0 9615451#1"/>
    </vehicle>
    <vehicle id="18" depart="18.00">
        <route edges="9615463#0 9615463#1 37276381#0 37276381#1 37276382 288162957 400528185 37790769#0 37790769#1 494136264#0 494136264#1 37791102#0 37791102#1 23487183#0 23487183#1 23487183#2 23487155#2 216475699#1 216475699#2 216475699#3 216475699#4 500272217#0 500272217#1 500272215#0 500272215#1 500272213#0 500272213#1 500272213#2 500272213#3 500272213#4 857524010 9615451#0 9615451#1 9615451#2 453509785 37873758 364957117 23013528#0 23013528#1 48012544#0 48012544#1 896349525 -896349525"/>
    </vehicle>
    <vehicle id="19" depart="19.00">
        <route edges="543524596#2 543524596#3 543524596#4 480054079 9872533#0 9872533#1 22598774 32011876 23013527#0 23013527#1 23013527#2 -154511600#2 -154511600#1 -154511600#0 88235135#0 88235135#1 995953631 32007885#0 32007885#1 32007885#2 32007885#3 32007885#4 31951737#0 31951737#1 31951737#2 32902927 179639808 179639807 636113045 23014984 23487155#0 23487155#1 23487155#2 216475699#1 216475699#2 216475699#3 216475699#4 500272217#0 500272217#1 500272215#0 500272215#1 500272213#0 500272213#1 500272213#2 500272213#3 500272213#4 857524010 9615451#0 9615451#1"/>
    </vehicle>
    <vehicle id="20" depart="20.00">
        <route edges="-52336762 22598791#0 22598791#1 32903236#1 31951782#0 31951782#1 636113045 23014984 22949995#0 22949995#1 332017311 237420008#0 237420008#1 237420008#2 219188460#2 219188460#3 219188460#4 -219188460#4"/>
    </vehicle>
    <vehicle id="21" depart="21.00">
        <route edges="29432729#0 29432729#1 538102222 568235970 568235967 22949500#0 22949500#1 22949500#2 23014986#0 -154502570 -47149088#2 -47149088#1 -47149088#0 494470561#0 494470561#1 -23014989 364957117 494282521#0 494282521#1 485710967 485710968 22949501 568235982 568235978 500272190 485710969 5172432#0 5172432#1 5172432#2"/>
    </vehicle>
    <vehicle id="22" depart="22.00">
        <route edges="22949649#0 22949649#1 22949649#2 23015816#5 543524596#4 480054079 9872533#0 9872533#1 22598774 32011876 23013527#0 23013527#1 23013527#2 -154511600#2 -154511600#1 -154511600#0 88235135#0 88235135#1 995953631 32007885#0 32007885#1 32007885#2 32007885#3 32007885#4 -88235139#1 -88235139#0 -540101366"/>
    </vehicle>
    <vehicle id="23" depart="23.00">
        <route edges="31951737#0 31951737#1 31951737#2 32902927 179639808 179639807 636113045 23014984 22949994#0 22949994#1 52303559#0 52303559#1 52303559#2 32029471 -39764938#1 -39764938#0 -23487153#2 -23487153#1 -23487153#0 154755110#0 154755110#1 86415855 86415848 175589819#0 175589819#1 175589819#2 154333001#0 154333001#1 169453888#0 169453888#1 169453888#2 130176207 186602851 145345146#0 145345146#1 169453895 169453894"/>
    </vehicle>
    <vehicle id="24" depart="24.00">
        <route edges="494590272 494590274#0 494590274#1 494590271 494590273 160012546 500272209 37873750 494282520 37873758 23014989 -494470561#1 -494470561#0 47149088#0 47149088#1 47149088#2 22598791#0 22598791#1 32903236#1 31951782#0 31951782#1 636113045 23014984 22949994#0 22949994#1 52303559#0 52303559#1 52303559#2 32029471 48826945#0 48826945#1 48826945#2 32213071#0"/>
    </vehicle>
    <vehicle id="26" depart="26.00">
        <route edges="154470575 203971499#0"/>
    </vehicle>
    <vehicle id="27" depart="27.00">
        <route edges="52303559#0 52303559#1 52303559#2 32029471 -39764938#1 -39764938#0 -23487153#2 -23487153#1 -23487153#0 154755110#0 154755110#1 86415855 86415848 175589819#0 175589819#1 175589819#2 154333001#0 154333001#1 169453888#0 169453888#1 169453888#2 130176207 186602851 145345146#0 145345146#1 169453895 169453894 32902676 329887688 22949651 381068419 381068422 32902674 22949648 154502587 154502582 480054082 154502586 480054085 485710970 485710969 5172432#0 5172432#1 5172432#2"/>
    </vehicle>
    <vehicle id="28" depart="28.00">
        <route edges="37873570#1 48012544#0 48012544#1 48012544#2 48012544#3 877599645 203322740#0 203322740#1 203322740#2 -154511600#2 -154511600#1 -154511600#0 88235135#0 88235135#1 995953631 32007885#0 32007885#1 32007885#2 32007885#3 32007885#4 31951737#0 31951737#1 31951737#2 32902927 179639808 179639807 636113045 23014984 23487155#0 23487155#1 23487155#2 216475699#1 216475699#2 216475699#3 216475699#4 500272217#0 500272217#1 500272215#0 500272215#1 500272213#0 500272213#1 500272213#2 500272213#3 500272213#4 857524010 9615451#0 9615451#1 9615451#2 453509785 37873758 23014989 -494470561#1 -494470561#0 47149088#0 47149088#1 47149088#2 154502570 23014986#1 4534488#0 4534488#1 4534488#2 4534488#3 4534488#4 56135602 9615463#0 9615463#1 37276381#0 37276381#1 37276382 288162957 400528185 37790769#0"/>
    </vehicle>
    <vehicle id="29" depart="29.00">
        <route edges="36695922 22949991 202650027 202650028#0 202650028#1 202650029#0 202650029#1 405531873#0 405531873#1 154755109#1 219188460#0 219188460#1 219188460#2 219188460#3 219188460#4 219188460#5 219188460#6 315921078#0 315921078#1 315921078#2 315921078#3 154755110#0 154755110#1 86415855 86415848 175589819#0 175589819#1 175589819#2 154333001#0 154333001#1 169453888#0 169453888#1 169453888#2 130176207 186602851 145345146#0 145345146#1 169453895 169453894 32902676 329887688 22949651 164158186 22949649#0 22949649#1 22949649#2 23015816#5 543524596#4 480054079 9872533#0 9872533#1 154502591 480054072 480054075"/>
    </vehicle>
    <vehicle id="30" depart="30.00">
        <route edges="24693834#0 24693834#1 51767045#0 51767045#1 51767045#2 23015816#0 23015816#1 23015816#2 23015816#3 23015816#4 23015816#5 543524596#4 34998405 22949650 22949652#0 22949652#1 37873571#0 37873571#1 37873571#2 187070213#0 187070213#1 402179132 37873574 175589820 315921077#0 315921077#1 315921077#2 315921077#3 154755110#0 154755110#1 86415855 86415860#0 86415860#1 88680005#0 88680005#1 154470575 203971499#0 203971499#1 203971499#2 203971500 -533123612#2 -533123612#1 -533123612#0 -200671461 22873505#0 22873505#1 22873507#0"/>
    </vehicle>
    <vehicle id="31" depart="31.00">
        <route edges="154502577 150039005#0 150039005#1 4534449 169465736 169465737 198171539#2 169465734#0 169465734#1 169465735#0 169465735#1 501456678 169453887#0 169453887#1 169453887#2 145345138 402179132 37873574 175589820 315921077#0 315921077#1 315921077#2 315921077#3 23487153#0 23487153#1 23487153#2"/>
    </vehicle>
    <vehicle id="32" depart="32.00">
        <route edges="22949650 22949652#0 22949652#1 37873571#0 37873571#1 37873571#2 187070213#0 187070213#1 402179132 37873574 175589820 315921077#0 315921077#1 315921077#2 315921077#3 154755110#0 154755110#1 86415855 86415860#0 86415860#1 88680005#0 88680005#1 154470575 203971499#0 203971499#1 203971499#2 203971500 -533123612#2 -533123612#1 -533123612#0 -200671461 22873531#0 22873531#1 37866521#1"/>
    </vehicle>
    <vehicle id="33" depart="33.00">
        <route edges="154502573#1 51767045#1 51767045#2 23015816#0 23015816#1 23015816#2 23015816#3 23015816#4 23015816#5 543524596#4 34998405 22949650 22949652#0 22949652#1 37873571#0 37873571#1 37873571#2 187070213#0 187070213#1 402179132 37873574 175589820 315921077#0 315921077#1 315921077#2 315921077#3 23487153#0 23487153#1 23487153#2 39764938#0 39764938#1 48826945#0 48826945#1 48826945#2 877575835 591415129 877575836"/>
    </vehicle>
    <vehicle id="35" depart="35.00">
        <route edges="23568396#0 23568396#1 23568396#2 10318490#0 10318490#1 10318490#2 136413965#0 136413965#1 136413965#2 136413965#3 667410648 169453890#0 169453890#1 169453890#2 186602851 145345138 402179132 37873574 175589820 315921077#0 315921077#1 315921077#2 315921077#3 23487153#0 23487153#1 23487153#2 39764938#0 39764938#1 48826945#0 48826945#1 48826945#2 32213071#0 32213071#1 540101366 88235139#0 88235139#1 31951737#0 31951737#1 31951737#2 32902927 179639808 179639807 636113045 23014984 23487155#0 23487155#1 23487155#2 216475699#1 216475699#2 216475699#3 216475699#4 500272217#0 500272217#1 500272215#0 500272215#1 500272213#0 500272213#1 500272213#2 500272213#3 500272213#4 857524010 9615451#0 9615451#1 9615451#2 453509785 37873758 23014989 -494470561#1 -494470561#0 47149088#0 47149088#1 47149088#2 154502570 23014986#1"/>
    </vehicle>
    <vehicle id="36" depart="36.00">
        <route edges="25102191 154502572#4 -10212091#2 -10212091#1 -10212091#0 369767418 369767417 23015817 22598789 25326177 25102142 24693834#1 23395143 34999321"/>
    </vehicle>
    <vehicle id="37" depart="37.00">
        <route edges="187212424 187212425 435406145 435406144 22873540#0 22873540#1 22873540#2 22873540#3 22873540#4 22873540#5 23686956#0 23686956#1 23686956#2 -22873505#1 -22873505#0 200671461 533123612#0 533123612#1 533123612#2 136413965#0 136413965#1 136413965#2 136413965#3 667410648 169453890#0 169453890#1 169453890#2 186602851 145345138 402179132 37873574 175589820 315921077#0 315921077#1 315921077#2 315921077#3 23487153#0 23487153#1 23487153#2 39764938#0 39764938#1 48826945#0 48826945#1 48826945#2 32213071#0 32213071#1 540101366 88235139#0 88235139#1 31951737#0 31951737#1 31951737#2 32902927 179639808 179639807 636113045 23014984"/>
    </vehicle>
    <vehicle id="38" depart="38.00">
        <route edges="31951782#1 636113045 23014984 23487155#0 23487155#1 23487155#2 216475699#1 216475699#2 216475699#3 216475699#4 500272217#0 500272217#1 500272215#0 500272215#1 500272213#0 500272213#1 500272213#2 500272213#3 500272213#4 857524010 9615451#0 9615451#1 9615451#2 453509785 37873758 364957117 494282521#0 494282521#1 485710967 485710968 22949501 568235982 568235978 500272190 485710969 5172432#0 5172432#1 5172432#2"/>
    </vehicle>
    <vehicle id="40" depart="40.00">
        <route edges="150039005#1 4534449 169465736 169465737 198171539#2 169465734#0 169465734#1 169465735#0 169465735#1 501456678 145345140#0 145345140#1 169453895 169453894 32902676 329887688 22949651 381068419 381068422 32902674 22949648 154502587 154502582 480054082 154502586 480054085 485710970 485710969"/>
    </vehicle>
    <vehicle id="41" depart="41.00">
        <route edges="22949995#1 332017311 237420008#0 237420008#1 237420008#2 219188460#2 219188460#3 219188460#4 219188460#5 219188460#6 315921078#0 315921078#1 315921078#2 315921078#3 23487153#0 23487153#1 23487153#2 39764938#0 39764938#1 48826945#0 48826945#1 48826945#2 32213071#0 32213071#1 540101366 88235139#0 88235139#1 31951737#0 31951737#1 31951737#2 32902927 179639808 179639807 636113045 23014984 23487155#0 23487155#1 23487155#2 216475699#1 216475699#2 216475699#3 216475699#4 500272217#0 500272217#1 500272215#0 500272215#1 500272213#0 500272213#1 500272213#2 500272213#3 500272213#4 857524010 9615451#0 9615451#1 9615451#2 453509785 37873758 23014989 -494470561#1 -494470561#0 -23014988#1 -23014988#0"/>
    </vehicle>
    <vehicle id="42" depart="42.00">
        <route edges="4534554#0 4534554#1 4534554#2 154502575 369767417 23015817 22598789 37744760 23015816#0 23015816#1 23015816#2 23015816#3 23015816#4 23015816#5 543524596#4 480054079 9872533#0 9872533#1 22598774 32011876 23013527#0 23013527#1 23013527#2 -154511600#2 -154511600#1 -154511600#0 88235135#0 88235135#1 995953631 32007885#0 32007885#1 32007885#2 32007885#3 32007885#4 31951737#0 31951737#1 31951737#2 32902927 179639808 179639807 636113045 23014984 23487155#0 23487155#1 23487155#2 216475699#1 216475699#2 216475699#3 216475699#4 500272217#0 500272217#1 500272215#0 500272215#1 500272213#0 500272213#1 500272213#2 500272213#3 500272213#4"/>
    </vehicle>
    <vehicle id="43" depart="43.00">
        <route edges="-200671461 200671461 533123612#0 533123612#1 533123612#2 136413965#0 136413965#1 136413965#2 136413965#3 667410648 169453890#0 169453890#1 169453890#2 186602851 145345138 402179132 37873574 175589820 315921077#0 315921077#1 315921077#2 315921077#3 23487153#0 23487153#1 23487153#2 39764938#0 39764938#1 48826945#0 48826945#1 -48826945#1"/>
    </vehicle>
    <vehicle id="44" depart="44.00">
        <route edges="154507079#1 568235965#0 568235965#1 568235962 32903236#0 32903236#1 31951782#0 31951782#1 636113045 23014984 22949994#0 22949994#1 52303559#0 52303559#1 52303559#2 32029471 -39764938#1 -39764938#0 -23487153#2 -23487153#1 -23487153#0 154755110#0 154755110#1"/>
    </vehicle>
    <vehicle id="46" depart="46.00">
        <route edges="500272213#0 500272213#1 500272213#2 500272213#3 500272213#4 857524010 9615451#0 9615451#1 9615451#2 37873582#0 37873582#1 37873582#2 9615512#0 9615512#1 9615512#2"/>
    </vehicle>
    <vehicle id="47" depart="47.00">
        <route edges="22949652#0"/>
    </vehicle>
    <vehicle id="48" depart="48.00">
        <route edges="150039005#1 4534449 169465736 169465737 198171539#2 169465734#0 169465734#1 169465735#0 169465735#1 501456678 145345140#0 145345140#1 169453895 169453894 32902676 329887688 22949651 164158186 22949649#0 22949649#1 22949649#2 34998404#0 34998404#1 34998404#2 154502573#0 154502573#1 154502572#0 154502572#1 22598782 22598789"/>
    </vehicle>
    <vehicle id="49" depart="49.00">
        <route edges="4400318#2 -121935993#2 -121935993#1 88679040 203971499#0 203971499#1 203971499#2 203971500 136413965#0 136413965#1 136413965#2 136413965#3 667410648 169453890#0 169453890#1 169453890#2 186602851 145345138 402179132 37873574 175589820 315921077#0 315921077#1 315921077#2 315921077#3 23487153#0 23487153#1 23487153#2 39764938#0 39764938#1 48826945#0 48826945#1 48826945#2 32213071#0 32213071#1 540101366 88235139#0 88235139#1 -32007885#4 -32007885#3 -32007885#2 -32007885#1 -32007885#0 -995953631 -88235135#1 -88235135#0 154511600#0 154511600#1 154511600#2 -203322740#2 -203322740#1 -203322740#0 877599646 23393212#0 23393212#1 24594314 37873570#0 23012542 22598787#1 22598787#2 22598783"/>
    </vehicle>
    <vehicle id="50" depart="50.00">
        <route edges="23568396#0 23568396#1 23568396#2 10318490#0 10318490#1 10318490#2 136413965#0 136413965#1 136413965#2 136413965#3 667410648 169453890#0 169453890#1 169453890#2 186602851 145345138 402179132 37873574 175589820 315921077#0 315921077#1 315921077#2 315921077#3 23487153#0 23487153#1 23487153#2 39764938#0 39764938#1 48826945#0 48826945#1 48826945#2 32213071#0 32213071#1 540101366 88235139#0 88235139#1 -32007885#4 -32007885#3 -32007885#2 -32007885#1 -32007885#0 -995953631 -88235135#1 -88235135#0 154511600#0 154511600#1 154511600#2 -203322740#2 -203322740#1 -203322740#0 877599646 23393212#0 23393212#1 24594314 37873570#0 51749453"/>
    </vehicle>
    <vehicle id="51" depart="51.00">
        <route edges="-154470575 154470575 203971499#0 203971499#1 203971499#2 203971500 136413965#0 136413965#1 136413965#2 136413965#3 667410648 169453890#0 169453890#1 169453890#2 186602851 145345138 402179132 37873574 175589820 315921077#0 315921077#1 315921077#2 315921077#3 23487153#0 23487153#1 23487153#2 39764938#0 39764938#1 48826945#0 48826945#1 48826945#2 32213071#0 32213071#1 540101366 88235139#0 88235139#1 31951737#0 31951737#1 31951737#2 32902927 179639808 179639807 636113045 23014984 23487155#0"/>
    </vehicle>
    <vehicle id="52" depart="52.00">
        <route edges="51767045#2 23015816#0 23015816#1 23015816#2 23015816#3 23015816#4 23015816#5 543524596#4 34998405 22949650 22949652#0 22949652#1 37873571#0 37873571#1 37873571#2 187070213#0 187070213#1 402179132 37873574 175589820 315921077#0 315921077#1 315921077#2 315921077#3 154755110#0 154755110#1 86415855 86415848 175589819#0 175589819#1 175589819#2 154333001#0 154333001#1 169453888#0 169453888#1 169453888#2 130176207 145345137#0 145345137#1 667410647#0 667410647#1 751176922#0"/>
    </vehicle>
    <vehicle id="53" depart="53.00">
        <route edges="-32007885#0 32007885#0 32007885#1 32007885#2 32007885#3 32007885#4 32008097#0 32008097#1 479545489#0 479545489#1 169455026 187070212#0 187070212#1 37873571#0 37873571#1 37873571#2 187070213#0 187070213#1 402179132 37873574 175589820 315921077#0 315921077#1 315921077#2 315921077#3 -315921078#3 -315921078#2"/>
    </vehicle>
    <vehicle id="55" depart="55.00">
        <route edges="-540101366 540101366 88235139#0 88235139#1 32008097#0 32008097#1 479545489#0 479545489#1 169455026 187070212#0 187070212#1 37873571#0 37873571#1 37873571#2 187070213#0 187070213#1 402179132 37873574 175589820 315921077#0 315921077#1 315921077#2 315921077#3 154755110#0 154755110#1 86415855 86415848 175589819#0 175589819#1 175589819#2 154333001#0 154333001#1 169453888#0 169453888#1 169453888#2 130176207 186602851 145345146#0 145345146#1 169453895 169453894 32902676 329887688 22949651 381068419 381068422 32902674 22949648 154502587 154502582"/>
    </vehicle>
    <vehicle id="56" depart="56.00">
        <route edges="500272215#0 500272215#1 500272213#0 500272213#1 500272213#2 500272213#3 500272213#4 857524010 9615451#0 9615451#1 9615451#2 453509785 37873758 23014989 -494470561#1 -494470561#0 47149088#0 47149088#1 47149088#2 22598791#0 22598791#1 32903236#1 31951782#0 31951782#1 636113045 23014984 22949995#0 22949995#1 332017311 237420008#0 237420008#1 237420008#2 219188460#2 219188460#3 219188460#4 219188460#5 219188460#6 315921078#0"/>
    </vehicle>
    <vehicle id="57" depart="57.00">
        <route edges="29432729#0 29432729#1 538102222 568235970 568235967 22949500#0 22949500#1 22949500#2 31951782#0 31951782#1 636113045 23014984 22949994#0 22949994#1 52303559#0 52303559#1 52303559#2 32029471 -39764938#1 -39764938#0 -23487153#2 -23487153#1 -23487153#0 154755110#0 154755110#1 86415855 86415848 175589819#0 175589819#1 175589819#2 154333001#0 154333001#1 169453888#0 169453888#1 169453888#2 130176207 186602851 145345146#0 145345146#1 169453895 169453894 32902676 329887688 22949651 164158186 22949649#0 22949649#1 22949649#2 34998404#0 34998404#1 34998404#2 154502573#0 154502573#1 154502572#0 25102142 24693834#1 23395143 -543531545#2"/>
    </vehicle>
    <vehicle id="58" depart="58.00">
        <route edges="51767045#2 -37744760 25326177 154502572#1 154502572#2 154502572#3 154502572#4 -10212091#2 -10212091#1 -10212091#0 369767418 369767417 150039006"/>
    </vehicle>
    <vehicle id="59" depart="59.00">
        <route edges="-83823403#0 83823403#0 83823403#1 83823403#2 37866521#0 -22873531#1 -22873531#0 200671461 533123612#0 533123612#1 533123612#2 136413965#0 136413965#1 136413965#2 136413965#3 667410648 169453890#0 169453890#1 169453890#2 186602851 145345138 402179132 37873574 175589820 315921077#0 315921077#1 315921077#2 315921077#3 23487153#0 23487153#1 23487153#2 39764938#0 39764938#1 48826945#0 48826945#1 48826945#2 32213071#0 32213071#1 540101366 88235139#0 88235139#1 -32007885#4 -32007885#3 -32007885#2 -32007885#1 -32007885#0 -995953631 -88235135#1 -88235135#0 154511600#0 154511600#1 154511600#2 -203322740#2 -203322740#1 -203322740#0 877599646 23393212#0 23393212#1 24594314 37873570#0 23012542"/>
    </vehicle>
    <vehicle id="60" depart="60.00">
        <route edges="29432729#0 29432729#1 538102222 568235970 568235967 22949500#0 22949500#1 22949500#2 31951782#0 31951782#1 636113045 23014984 22949994#0 22949994#1 52303559#0 52303559#1 52303559#2 32029471 -39764938#1 -39764938#0 -23487153#2 -23487153#1 -23487153#0 154755110#0 154755110#1 86415855 86415848 175589819#0 175589819#1 175589819#2 154333001#0 154333001#1 169453888#0 169453888#1 169453888#2 130176207 186602851 145345146#0 145345146#1 169453895 169453894 32902676"/>
    </vehicle>
    <vehicle id="61" depart="61.00">
        <route edges="179639808 179639807 636113045 23014984 22949994#0 22949994#1 52303559#0 52303559#1 52303559#2 32029471 -39764938#1 -39764938#0 -23487153#2 -23487153#1 -23487153#0 154755110#0 154755110#1 86415855 86415860#0 86415860#1 88680005#0 88680005#1 154470575 203971499#0 203971499#1 203971499#2 203971501#0 203971501#1 727302499 4400318#0 4400318#1 4400318#2 4400318#3"/>
    </vehicle>
    <vehicle id="62" depart="62.00">
        <route edges="154502573#1 51767045#1 51767045#2 23015816#0 23015816#1 23015816#2 23015816#3 23015816#4 23015816#5 543524596#4 34998405 22949650 22949652#0 22949652#1 37873571#0 37873571#1 37873571#2 187070213#0 187070213#1 402179132 37873574 175589820 315921077#0 315921077#1 315921077#2 315921077#3 -315921078#3 -315921078#2 -315921078#1 -315921078#0 -219188460#6"/>
    </vehicle>
    <vehicle id="63" depart="63.00">
        <route edges="83823409 83823403#0 83823403#1 83823403#2 37866521#0 -22873531#1 -22873531#0 200671461 533123612#0 533123612#1 533123612#2 136413965#0 136413965#1 136413965#2 136413965#3 667410648 169453890#0 169453890#1 169453890#2 186602851 145345138 402179132 37873574 175589820 315921077#0 315921077#1 315921077#2 315921077#3 23487153#0 23487153#1 23487153#2 39764938#0 39764938#1 48826945#0 48826945#1 48826945#2 32213071#0 32213071#1 540101366 88235139#0 88235139#1 -32007885#4 -32007885#3 -32007885#2 -32007885#1 -32007885#0 -995953631 -88235135#1 -88235135#0 154511600#0 154511600#1 154511600#2 -203322740#2 -203322740#1 -203322740#0 877599646 23393212#0 23393212#1 24594314 37873570#0 23012542 22598787#1 22598787#2 22598783"/>
    </vehicle>
    <vehicle id="64" depart="64.00">
        <route edges="23393212#1 24594314 37873570#0 37873570#1 48012544#0 48012544#1 48012544#2 48012544#3 877599645 203322740#0 203322740#1 203322740#2 -154511600#2 -154511600#1 -154511600#0 88235135#0 88235135#1 995953631 32007885#0 32007885#1 32007885#2 32007885#3 32007885#4 31951737#0 31951737#1 31951737#2 32902927 179639808 179639807 636113045 23014984 23487155#0 23487155#1 23487155#2 216475699#1 216475695 216475696 216475698 23487156"/>
    </vehicle>
    <vehicle id="65" depart="65.00">
        <route edges="23014984 23487155#0 23487155#1 23487155#2 216475699#1 216475699#2 216475699#3 216475699#4 500272217#0 500272217#1 500272215#0 500272215#1 500272213#0 500272213#1 500272213#2 500272213#3 500272213#4 857524010 9615451#0 9615451#1 9615451#2 453509785 37873758 23014989 -494470561#1 -494470561#0 -23014988#1 23014988#1"/>
    </vehicle>
    <vehicle id="66" depart="66.00">