<?xml version="1.0" encoding="UTF-8"?>

<!-- generated on Mon Nov  8 23:43:36 2021 by SUMO netconvert Version 0.32.0
<?xml version="1.0" encoding="UTF-8"?>

<configuration xmlns:xsi="http://www.w3.org/2001/XMLSchema-instance" xsi:noNamespaceSchemaLocation="http://sumo.dlr.de/xsd/netconvertConfiguration.xsd">

    <input>
        <osm-files value="colonia_ls.osm"/>
    </input>

    <output>
        <output-file value="colonia_ls.net.xml"/>
    </output>

    <projection>
        <proj.utm value="true"/>
    </projection>

    <tls_building>
        <tls.guess-signals value="true"/>
        <tls.guess-signals.dist value="100"/>
    </tls_building>

</configuration>
-->

<net version="0.27" xmlns:xsi="http://www.w3.org/2001/XMLSchema-instance" xsi:noNamespaceSchemaLocation="http://sumo.dlr.de/xsd/net_file.xsd">

    <location netOffset="-355835.86,-5642422.97" convBoundary="0.00,0.00,1848.05,2177.16" origBoundary="6.948502,50.915636,6.974704,50.935167" projParameter="+proj=utm +zone=32 +ellps=WGS84 +datum=WGS84 +units=m +no_defs"/>

    <type id="highway.bridleway" priority="1" numLanes="1" speed="2.78" allow="pedestrian" oneway="1" width="2.00"/>
    <type id="highway.bus_guideway" priority="1" numLanes="1" speed="8.33" allow="bus" oneway="1"/>
    <type id="highway.cycleway" priority="1" numLanes="1" speed="5.56" allow="bicycle" oneway="0" width="1.00"/>
    <type id="highway.footway" priority="1" numLanes="1" speed="2.78" allow="pedestrian" oneway="1" width="2.00"/>
    <type id="highway.ford" priority="1" numLanes="1" speed="2.78" allow="army" oneway="0"/>
    <type id="highway.living_street" priority="3" numLanes="1" speed="2.78" disallow="tram rail_urban rail rail_electric ship" oneway="0"/>
    <type id="highway.motorway" priority="13" numLanes="2" speed="44.44" allow="private emergency authority army vip passenger hov taxi bus coach delivery truck trailer motorcycle evehicle custom1 custom2" oneway="1"/>
    <type id="highway.motorway_link" priority="12" numLanes="1" speed="22.22" allow="private emergency authority army vip passenger hov taxi bus coach delivery truck trailer motorcycle evehicle custom1 custom2" oneway="1"/>
    <type id="highway.path" priority="1" numLanes="1" speed="2.78" allow="bicycle pedestrian" oneway="1" width="2.00"/>
    <type id="highway.pedestrian" priority="1" numLanes="1" speed="2.78" allow="pedestrian" oneway="1" width="2.00"/>
    <type id="highway.primary" priority="9" numLanes="2" speed="27.78" disallow="tram rail_urban rail rail_electric ship" oneway="0"/>
    <type id="highway.primary_link" priority="8" numLanes="1" speed="22.22" disallow="tram rail_urban rail rail_electric ship" oneway="0"/>
    <type id="highway.raceway" priority="14" numLanes="2" speed="83.33" allow="vip" oneway="0"/>
    <type id="highway.residential" priority="4" numLanes="1" speed="13.89" disallow="tram rail_urban rail rail_electric ship" oneway="0"/>
    <type id="highway.secondary" priority="7" numLanes="2" speed="27.78" disallow="tram rail_urban rail rail_electric ship" oneway="0"/>
    <type id="highway.secondary_link" priority="6" numLanes="1" speed="22.22" disallow="tram rail_urban rail rail_electric ship" oneway="0"/>
    <type id="highway.service" priority="2" numLanes="1" speed="5.56" allow="delivery bicycle pedestrian" oneway="0"/>
    <type id="highway.services" priority="1" numLanes="1" speed="8.33" disallow="tram rail_urban rail rail_electric ship" oneway="0"/>
    <type id="highway.stairs" priority="1" numLanes="1" speed="1.39" allow="pedestrian" oneway="1" width="2.00"/>
    <type id="highway.step" priority="1" numLanes="1" speed="1.39" allow="pedestrian" oneway="1" width="2.00"/>
    <type id="highway.steps" priority="1" numLanes="1" speed="1.39" allow="pedestrian" oneway="1" width="2.00"/>
    <type id="highway.tertiary" priority="6" numLanes="1" speed="22.22" disallow="tram rail_urban rail rail_electric ship" oneway="0"/>
    <type id="highway.tertiary_link" priority="5" numLanes="1" speed="22.22" disallow="tram rail_urban rail rail_electric ship" oneway="0"/>
    <type id="highway.track" priority="1" numLanes="1" speed="5.56" disallow="tram rail_urban rail rail_electric ship" oneway="0"/>
    <type id="highway.trunk" priority="11" numLanes="2" speed="27.78" disallow="tram rail_urban rail rail_electric bicycle pedestrian ship" oneway="0"/>
    <type id="highway.trunk_link" priority="10" numLanes="1" speed="22.22" disallow="tram rail_urban rail rail_electric bicycle pedestrian ship" oneway="0"/>
    <type id="highway.unclassified" priority="5" numLanes="1" speed="13.89" disallow="tram rail_urban rail rail_electric ship" oneway="0"/>
    <type id="highway.unsurfaced" priority="1" numLanes="1" speed="8.33" disallow="tram rail_urban rail rail_electric ship" oneway="0"/>
    <type id="railway.light_rail" priority="15" numLanes="1" speed="27.78" allow="rail_urban" oneway="1"/>
    <type id="railway.preserved" priority="15" numLanes="1" speed="27.78" allow="rail" oneway="1"/>
    <type id="railway.rail" priority="15" numLanes="1" speed="83.33" allow="rail rail_electric" oneway="1"/>
    <type id="railway.subway" priority="15" numLanes="1" speed="27.78" allow="rail_urban" oneway="1"/>
    <type id="railway.tram" priority="15" numLanes="1" speed="13.89" allow="tram" oneway="1"/>

    <edge id=":1002700536_0" function="internal">
        <lane id=":1002700536_0_0" index="0" disallow="tram rail_urban rail rail_electric ship" speed="8.33" length="0.10" shape="755.13,1614.82 755.13,1614.82"/>
    </edge>
    <edge id=":1004021481_0" function="internal">
        <lane id=":1004021481_0_0" index="0" disallow="tram rail_urban rail rail_electric ship" speed="11.11" length="2.52" shape="563.05,2063.56 563.21,2064.22 563.54,2064.69 564.05,2064.95 564.73,2065.01"/>
    </edge>
    <edge id=":1029560908_0" function="internal">
        <lane id=":1029560908_0_0" index="0" disallow="tram rail_urban rail rail_electric ship" speed="13.89" length="0.36" shape="423.15,1789.26 423.07,1789.49"/>
        <lane id=":1029560908_0_1" index="1" disallow="tram rail_urban rail rail_electric ship" speed="13.89" length="0.36" shape="420.04,1788.17 419.94,1788.47"/>
        <lane id=":1029560908_0_2" index="2" disallow="tram rail_urban rail rail_electric ship" speed="13.89" length="0.36" shape="416.93,1787.07 416.80,1787.44"/>
        <lane id=":1029560908_0_3" index="3" disallow="tram rail_urban rail rail_electric ship" speed="13.89" length="0.36" shape="413.81,1785.97 413.66,1786.42"/>
    </edge>
    <edge id=":1029567367_0" function="internal">
        <lane id=":1029567367_0_0" index="0" allow="delivery bicycle pedestrian" speed="5.56" length="4.82" shape="500.68,1959.35 502.01,1958.68 502.94,1958.73 503.45,1959.50 503.55,1960.98"/>
    </edge>
    <edge id=":1029567415_0" function="internal">
        <lane id=":1029567415_0_0" index="0" allow="delivery bicycle pedestrian" speed="5.56" length="1.31" shape="461.39,1959.86 461.04,1959.68 460.81,1959.55 460.60,1959.39 460.33,1959.12"/>
    </edge>
    <edge id=":1029567415_1" function="internal">
        <lane id=":1029567415_1_0" index="0" allow="delivery bicycle pedestrian" speed="5.56" length="2.41" shape="461.39,1959.86 460.68,1958.55 460.70,1957.63"/>
    </edge>
    <edge id=":1029567415_4" function="internal">
        <lane id=":1029567415_4_0" index="0" speed="5.56" length="2.41" shape="460.70,1957.63 461.45,1957.09 462.93,1956.94"/>
    </edge>
    <edge id=":1029567415_2" function="internal">
        <lane id=":1029567415_2_0" index="0" allow="delivery bicycle pedestrian" speed="5.56" length="0.23" shape="462.73,1956.85 462.78,1956.89 462.82,1956.91 462.87,1956.92 462.93,1956.94"/>
    </edge>
    <edge id=":1029567415_3" function="internal">
        <lane id=":1029567415_3_0" index="0" allow="delivery bicycle pedestrian" speed="5.56" length="2.41" shape="462.73,1956.85 462.98,1958.32 462.66,1959.19"/>
    </edge>
    <edge id=":1029567415_5" function="internal">
        <lane id=":1029567415_5_0" index="0" speed="5.56" length="2.41" shape="462.66,1959.19 461.78,1959.45 460.33,1959.12"/>
    </edge>
    <edge id=":1029567457_0" function="internal">
        <lane id=":1029567457_0_0" index="0" disallow="tram rail_urban rail rail_electric ship" speed="9.73" length="5.04" shape="460.19,1958.97 459.14,1958.14 458.12,1958.00 457.13,1958.53 456.17,1959.74"/>
    </edge>
    <edge id=":1029567457_1" function="internal">
        <lane id=":1029567457_1_0" index="0" disallow="tram rail_urban rail rail_electric ship" speed="9.73" length="8.54" shape="460.19,1958.97 458.34,1956.68 457.26,1954.66 456.93,1952.92 457.35,1951.45"/>
    </edge>
    <edge id=":1029567457_2" function="internal">
        <lane id=":1029567457_2_0" index="0" allow="delivery bicycle pedestrian" speed="5.56" length="4.82" shape="460.19,1958.97 459.94,1957.50 460.26,1956.64 461.14,1956.37 462.59,1956.71"/>
    </edge>
    <edge id=":1029567457_3" function="internal">
        <lane id=":1029567457_3_0" index="0" allow="delivery bicycle pedestrian" speed="9.73" length="4.45" shape="460.20,1953.12 460.26,1953.94 460.95,1954.96 461.86,1955.95 462.59,1956.71"/>
    </edge>
    <edge id=":1029567457_4" function="internal">
        <lane id=":1029567457_4_0" index="0" disallow="tram rail_urban rail rail_electric ship" speed="13.89" length="7.75" shape="460.20,1953.12 456.17,1959.74"/>
    </edge>
    <edge id=":1029567457_5" function="internal">
        <lane id=":1029567457_5_0" index="0" disallow="tram rail_urban rail rail_electric ship" speed="13.89" length="2.41" shape="460.20,1953.12 458.86,1953.77 457.94,1953.71"/>
    </edge>
    <edge id=":1029567457_9" function="internal">
        <lane id=":1029567457_9_0" index="0" speed="13.89" length="2.41" shape="457.94,1953.71 457.44,1952.94 457.35,1951.45"/>
    </edge>
    <edge id=":1029567457_6" function="internal">
        <lane id=":1029567457_6_0" index="0" disallow="tram rail_urban rail rail_electric ship" speed="13.89" length="7.70" shape="453.35,1958.03 457.35,1951.45"/>
    </edge>
    <edge id=":1029567457_7" function="internal">
        <lane id=":1029567457_7_0" index="0" allow="delivery bicycle pedestrian" speed="9.73" length="5.73" shape="453.35,1958.03 455.50,1955.37 457.58,1954.35"/>
    </edge>
    <edge id=":1029567457_8" function="internal">
        <lane id=":1029567457_8_0" index="0" disallow="tram rail_urban rail rail_electric ship" speed="13.89" length="2.41" shape="453.35,1958.03 454.70,1957.40 455.62,1957.47"/>
    </edge>
    <edge id=":1029567457_10" function="internal">
        <lane id=":1029567457_10_0" index="0" speed="9.73" length="5.78" shape="457.58,1954.35 457.75,1954.27 460.11,1954.71 462.59,1956.71"/>
    </edge>
    <edge id=":1029567457_11" function="internal">
        <lane id=":1029567457_11_0" index="0" speed="13.89" length="2.41" shape="455.62,1957.47 456.11,1958.26 456.17,1959.74"/>
    </edge>
    <edge id=":1029572448_0" function="internal">
        <lane id=":1029572448_0_0" index="0" disallow="tram rail_urban rail rail_electric ship" speed="9.73" length="5.18" shape="502.94,1990.32 502.94,1991.77 503.41,1992.81 504.37,1993.43 505.81,1993.63"/>
    </edge>
    <edge id=":1029572448_1" function="internal">
        <lane id=":1029572448_1_0" index="0" allow="delivery bicycle pedestrian" speed="5.56" length="4.82" shape="502.94,1990.32 501.94,1991.43 501.07,1991.72 500.31,1991.19 499.67,1989.85"/>
    </edge>
    <edge id=":1029572448_2" function="internal">
        <lane id=":1029572448_2_0" index="0" allow="delivery bicycle pedestrian" speed="9.73" length="5.66" shape="496.25,1993.69 497.54,1993.44 498.54,1992.71 499.25,1991.52 499.67,1989.85"/>
    </edge>
    <edge id=":1029572448_3" function="internal">
        <lane id=":1029572448_3_0" index="0" disallow="tram rail_urban rail rail_electric ship" speed="13.89" length="9.56" shape="496.25,1993.69 505.81,1993.63"/>
    </edge>
    <edge id=":1029572467_0" function="internal">
        <lane id=":1029572467_0_0" index="0" allow="delivery bicycle pedestrian" speed="5.56" length="0.13" shape="503.14,1988.95 503.11,1989.08"/>
    </edge>
    <edge id=":1029572467_1" function="internal">
        <lane id=":1029572467_1_0" index="0" allow="delivery bicycle pedestrian" speed="5.56" length="2.41" shape="503.14,1988.95 502.10,1990.01 501.21,1990.27"/>
    </edge>
    <edge id=":1029572467_4" function="internal">
        <lane id=":1029572467_4_0" index="0" speed="5.56" length="2.41" shape="501.21,1990.27 500.47,1989.71 499.89,1988.34"/>
    </edge>
    <edge id=":1029572467_2" function="internal">
        <lane id=":1029572467_2_0" index="0" allow="delivery bicycle pedestrian" speed="5.56" length="0.28" shape="499.85,1988.61 499.89,1988.34"/>
    </edge>
    <edge id=":1029572467_3" function="internal">
        <lane id=":1029572467_3_0" index="0" allow="delivery bicycle pedestrian" speed="5.56" length="2.41" shape="499.85,1988.61 500.84,1987.51 501.72,1987.22"/>
    </edge>
    <edge id=":1029572467_5" function="internal">
        <lane id=":1029572467_5_0" index="0" speed="5.56" length="2.41" shape="501.72,1987.22 502.48,1987.74 503.11,1989.08"/>
    </edge>
    <edge id=":1029572473_0" function="internal">
        <lane id=":1029572473_0_0" index="0" allow="delivery bicycle pedestrian" speed="5.56" length="4.82" shape="526.17,1968.60 527.39,1969.45 527.79,1970.28 527.36,1971.10 526.11,1971.90"/>
    </edge>
    <edge id=":1158665482_0" function="internal">
        <lane id=":1158665482_0_0" index="0" disallow="tram rail_urban rail rail_electric ship" speed="13.89" length="5.15" shape="568.59,1307.47 570.02,1308.00 571.01,1308.34 572.01,1308.64 573.49,1309.04"/>
    </edge>
    <edge id=":1342070215_0" function="internal">
        <lane id=":1342070215_0_0" index="0" allow="rail_urban" speed="27.78" length="23.64" shape="171.47,1682.85 176.54,1683.28 183.26,1683.55 189.98,1683.68 195.08,1683.63"/>
    </edge>
    <edge id=":1342070215_1" function="internal">
        <lane id=":1342070215_1_0" index="0" allow="rail_urban" speed="27.78" length="23.62" shape="171.64,1686.50 176.67,1685.64 183.32,1684.75 190.00,1684.01 195.08,1683.63"/>
    </edge>
    <edge id=":1363742989_0" function="internal">
        <lane id=":1363742989_0_0" index="0" disallow="tram rail_urban rail rail_electric ship" speed="9.73" length="7.92" shape="464.82,1997.24 465.17,1995.83 466.35,1994.81 468.34,1994.18 471.15,1993.95"/>
    </edge>
    <edge id=":1363742989_1" function="internal">
        <lane id=":1363742989_1_0" index="0" allow="delivery bicycle pedestrian" speed="5.56" length="4.82" shape="464.82,1997.24 465.60,1995.97 466.41,1995.53 467.25,1995.92 468.12,1997.12"/>
    </edge>
    <edge id=":1363742989_2" function="internal">
        <lane id=":1363742989_2_0" index="0" disallow="tram rail_urban rail rail_electric ship" speed="13.89" length="9.46" shape="461.68,1993.94 471.15,1993.95"/>
    </edge>
    <edge id=":1363742989_3" function="internal">
        <lane id=":1363742989_3_0" index="0" allow="delivery bicycle pedestrian" speed="9.73" length="7.87" shape="461.68,1993.94 464.46,1994.17 466.46,1994.78 467.68,1995.76 468.12,1997.12"/>
    </edge>
    <edge id=":1363742991_0" function="internal">
        <lane id=":1363742991_0_0" index="0" disallow="tram rail_urban rail rail_electric ship" speed="13.89" length="9.50" shape="507.01,1993.63 516.50,1993.60"/>
    </edge>
    <edge id=":1363742991_1" function="internal">
        <lane id=":1363742991_1_0" index="0" allow="delivery bicycle pedestrian" speed="9.73" length="7.92" shape="507.01,1993.63 509.82,1993.83 511.82,1994.43 513.00,1995.44 513.37,1996.85"/>
    </edge>
    <edge id=":1363742991_2" function="internal">
        <lane id=":1363742991_2_0" index="0" disallow="tram rail_urban rail rail_electric ship" speed="9.73" length="7.89" shape="510.07,1996.77 510.50,1995.39 511.72,1994.41 513.72,1993.81 516.50,1993.60"/>
    </edge>
    <edge id=":1363742991_3" function="internal">
        <lane id=":1363742991_3_0" index="0" allow="delivery bicycle pedestrian" speed="5.56" length="4.82" shape="510.07,1996.77 510.93,1995.55 511.76,1995.16 512.57,1995.59 513.37,1996.85"/>
    </edge>
    <edge id=":1363743010_0" function="internal">
        <lane id=":1363743010_0_0" index="0" allow="delivery bicycle pedestrian" speed="5.56" length="0.27" shape="464.92,2000.04 464.91,1999.77"/>
    </edge>
    <edge id=":1363743010_1" function="internal">
        <lane id=":1363743010_1_0" index="0" allow="delivery bicycle pedestrian" speed="5.56" length="2.41" shape="464.92,2000.04 465.71,1998.79 466.53,1998.36"/>
    </edge>
    <edge id=":1363743010_4" function="internal">
        <lane id=":1363743010_4_0" index="0" speed="5.56" length="2.41" shape="466.53,1998.36 467.36,1998.75 468.22,1999.97"/>
    </edge>
    <edge id=":1363743010_2" function="internal">
        <lane id=":1363743010_2_0" index="0" allow="delivery bicycle pedestrian" speed="5.56" length="0.31" shape="468.21,1999.66 468.22,1999.97"/>
    </edge>
    <edge id=":1363743010_3" function="internal">
        <lane id=":1363743010_3_0" index="0" allow="delivery bicycle pedestrian" speed="5.56" length="2.41" shape="468.21,1999.66 467.43,2000.93 466.62,2001.37"/>
    </edge>
    <edge id=":1363743010_5" function="internal">
        <lane id=":1363743010_5_0" index="0" speed="5.56" length="2.41" shape="466.62,2001.37 465.78,2000.98 464.91,1999.77"/>
    </edge>
    <edge id=":1363743039_0" function="internal">
        <lane id=":1363743039_0_0" index="0" allow="delivery bicycle pedestrian" speed="5.56" length="0.26" shape="513.29,1999.89 513.29,2000.15"/>
    </edge>
    <edge id=":1363743039_1" function="internal">
        <lane id=":1363743039_1_0" index="0" allow="delivery bicycle pedestrian" speed="5.56" length="2.41" shape="513.29,1999.89 512.44,2001.11 511.60,2001.50"/>
    </edge>
    <edge id=":1363743039_4" function="internal">
        <lane id=":1363743039_4_0" index="0" speed="5.56" length="2.41" shape="511.60,2001.50 510.79,2001.06 509.99,1999.81"/>
    </edge>
    <edge id=":1363743039_2" function="internal">
        <lane id=":1363743039_2_0" index="0" allow="delivery bicycle pedestrian" speed="5.56" length="0.31" shape="509.99,2000.12 509.99,1999.81"/>
    </edge>
    <edge id=":1363743039_3" function="internal">
        <lane id=":1363743039_3_0" index="0" allow="delivery bicycle pedestrian" speed="5.56" length="2.41" shape="509.99,2000.12 510.82,1998.89 511.65,1998.49"/>
    </edge>
    <edge id=":1363743039_5" function="internal">
        <lane id=":1363743039_5_0" index="0" speed="5.56" length="2.41" shape="511.65,1998.49 512.47,1998.91 513.29,2000.15"/>
    </edge>
    <edge id=":1363743084_0" function="internal">
        <lane id=":1363743084_0_0" index="0" allow="delivery bicycle pedestrian" speed="5.56" length="4.82" shape="446.35,2017.31 445.25,2016.31 444.97,2015.43 445.51,2014.68 446.86,2014.05"/>
    </edge>
    <edge id=":1363743105_0" function="internal">
        <lane id=":1363743105_0_0" index="0" allow="delivery bicycle pedestrian" speed="5.56" length="9.59" shape="470.80,2021.14 461.33,2019.66"/>
    </edge>
    <edge id=":1363743105_1" function="internal">
        <lane id=":1363743105_1_0" index="0" allow="delivery bicycle pedestrian" speed="5.56" length="10.44" shape="470.80,2021.14 468.35,2020.33 466.59,2018.80 465.53,2016.54 465.16,2013.54"/>
    </edge>
    <edge id=":1363743105_2" function="internal">
        <lane id=":1363743105_2_0" index="0" allow="delivery bicycle pedestrian" speed="5.56" length="4.82" shape="470.80,2021.14 469.71,2020.13 469.42,2019.25 469.96,2018.50 471.31,2017.88"/>
    </edge>
    <edge id=":1363743105_3" function="internal">
        <lane id=":1363743105_3_0" index="0" allow="delivery bicycle pedestrian" speed="5.56" length="5.72" shape="468.46,2013.52 468.65,2015.26 469.18,2016.57 470.07,2017.44 471.31,2017.88"/>
    </edge>
    <edge id=":1363743105_4" function="internal">
        <lane id=":1363743105_4_0" index="0" allow="delivery bicycle pedestrian" speed="5.56" length="11.17" shape="468.46,2013.52 468.03,2016.63 466.69,2018.69 464.46,2019.69 461.33,2019.66"/>
    </edge>
    <edge id=":1363743105_5" function="internal">
        <lane id=":1363743105_5_0" index="0" allow="delivery bicycle pedestrian" speed="5.56" length="4.82" shape="468.46,2013.52 467.64,2014.77 466.82,2015.18 465.99,2014.77 465.16,2013.54"/>
    </edge>
    <edge id=":1363743105_6" function="internal">
        <lane id=":1363743105_6_0" index="0" allow="delivery bicycle pedestrian" speed="5.56" length="5.20" shape="461.84,2016.40 463.30,2016.41 464.34,2015.94 464.96,2014.99 465.16,2013.54"/>
    </edge>
    <edge id=":1363743105_7" function="internal">
        <lane id=":1363743105_7_0" index="0" allow="delivery bicycle pedestrian" speed="5.56" length="9.59" shape="461.84,2016.40 471.31,2017.88"/>
    </edge>
    <edge id=":1363743105_8" function="internal">
        <lane id=":1363743105_8_0" index="0" allow="delivery bicycle pedestrian" speed="5.56" length="4.82" shape="461.84,2016.40 462.93,2017.40 463.21,2018.28 462.68,2019.03 461.33,2019.66"/>
    </edge>
    <edge id=":1363743108_0" function="internal">
        <lane id=":1363743108_0_0" index="0" allow="delivery bicycle pedestrian" speed="5.56" length="4.82" shape="475.41,2018.51 476.50,2019.52 476.79,2020.40 476.25,2021.15 474.90,2021.77"/>
    </edge>
    <edge id=":1363743130_0" function="internal">
        <lane id=":1363743130_0_0" index="0" allow="delivery bicycle pedestrian" speed="5.56" length="4.82" shape="512.92,2027.76 512.08,2028.98 511.25,2029.38 510.43,2028.96 509.63,2027.71"/>
    </edge>
    <edge id=":1363743185_0" function="internal">
        <lane id=":1363743185_0_0" index="0" allow="delivery bicycle pedestrian" speed="5.56" length="4.82" shape="475.75,2045.52 476.71,2044.38 477.58,2044.07 478.35,2044.57 479.03,2045.89"/>
    </edge>
    <edge id=":1363743244_0" function="internal">
        <lane id=":1363743244_0_0" index="0" allow="delivery bicycle pedestrian" speed="5.56" length="4.82" shape="478.06,2067.83 477.24,2069.07 476.41,2069.48 475.59,2069.07 474.76,2067.84"/>
    </edge>
    <edge id=":1363743253_0" function="internal">
        <lane id=":1363743253_0_0" index="0" allow="delivery bicycle pedestrian" speed="5.56" length="4.82" shape="460.66,2069.68 459.83,2070.92 459.00,2071.32 458.18,2070.91 457.36,2069.66"/>
    </edge>
    <edge id=":1363743262_0" function="internal">
        <lane id=":1363743262_0_0" index="0" disallow="tram rail_urban rail rail_electric ship" speed="13.89" length="4.82" shape="496.48,2071.17 497.84,2071.78 498.39,2072.52 498.12,2073.40 497.04,2074.43"/>
    </edge>
    <edge id=":1420048725_0" function="internal">
        <lane id=":1420048725_0_0" index="0" disallow="tram rail_urban rail rail_electric ship" speed="9.73" length="3.89" shape="768.87,1377.73 769.34,1378.60 769.62,1379.51 769.70,1380.46 769.58,1381.45"/>
    </edge>
    <edge id=":1420048725_1" function="internal">
        <lane id=":1420048725_1_0" index="0" allow="delivery bicycle pedestrian" speed="5.56" length="4.82" shape="768.87,1377.73 768.87,1379.21 768.41,1380.01 767.50,1380.12 766.12,1379.55"/>
    </edge>
    <edge id=":1420048725_2" function="internal">
        <lane id=":1420048725_2_0" index="0" allow="delivery bicycle pedestrian" speed="9.73" length="1.27" shape="766.36,1380.76 766.39,1380.44 766.37,1380.13 766.28,1379.83 766.12,1379.55"/>
    </edge>
    <edge id=":1420048725_3" function="internal">
        <lane id=":1420048725_3_0" index="0" disallow="tram rail_urban rail rail_electric ship" speed="13.89" length="4.82" shape="766.36,1380.76 767.42,1379.72 768.31,1379.49 769.03,1380.06 769.58,1381.45"/>
    </edge>
    <edge id=":1420048726_0" function="internal">
        <lane id=":1420048726_0_0" index="0" disallow="tram rail_urban rail rail_electric ship" speed="13.89" length="9.49" shape="762.60,1441.19 753.15,1442.06"/>
    </edge>
    <edge id=":1420048726_1" function="internal">
        <lane id=":1420048726_1_0" index="0" disallow="tram rail_urban rail rail_electric ship" speed="13.89" length="7.94" shape="762.60,1441.19 759.77,1441.23 757.73,1440.79 756.47,1439.88 756.00,1438.48"/>
    </edge>
    <edge id=":1420048726_2" function="internal">
        <lane id=":1420048726_2_0" index="0" disallow="tram rail_urban rail rail_electric ship" speed="13.89" length="1.15" shape="759.29,1438.31 759.03,1439.44"/>
    </edge>
    <edge id=":1420048726_3" function="internal">
        <lane id=":1420048726_3_0" index="0" disallow="tram rail_urban rail rail_electric ship" speed="13.89" length="1.22" shape="759.29,1438.31 758.67,1439.36"/>
    </edge>
    <edge id=":1420048726_4" function="internal">
        <lane id=":1420048726_4_0" index="0" speed="13.89" length="6.74" shape="759.03,1439.44 758.97,1439.72 757.84,1440.82 755.90,1441.60 753.15,1442.06"/>
    </edge>
    <edge id=":1420048726_5" function="internal">
        <lane id=":1420048726_5_0" index="0" speed="13.89" length="3.60" shape="758.67,1439.36 758.53,1439.59 757.73,1440.05 756.88,1439.68 756.00,1438.48"/>
    </edge>
    <edge id=":143456888_0" function="internal">
        <lane id=":143456888_0_0" index="0" allow="rail_urban" speed="27.78" length="0.30" shape="372.84,1580.08 373.09,1579.91"/>
    </edge>
    <edge id=":1496363648_0" function="internal">
        <lane id=":1496363648_0_0" index="0" disallow="tram rail_urban rail rail_electric ship" speed="13.89" length="8.35" shape="379.54,1916.28 377.82,1924.18"/>
        <lane id=":1496363648_0_1" index="1" disallow="tram rail_urban rail rail_electric ship" speed="13.89" length="8.35" shape="376.36,1915.40 374.58,1923.56"/>
        <lane id=":1496363648_0_2" index="2" disallow="tram rail_urban rail rail_electric ship" speed="13.89" length="8.35" shape="373.18,1914.52 371.33,1922.95"/>
    </edge>
    <edge id=":1496374287_0" function="internal">
        <lane id=":1496374287_0_0" index="0" disallow="tram rail_urban rail rail_electric ship" speed="13.89" length="0.28" shape="369.75,1966.48 369.72,1966.69"/>
        <lane id=":1496374287_0_1" index="1" disallow="tram rail_urban rail rail_electric ship" speed="13.89" length="0.28" shape="366.51,1965.86 366.46,1966.13"/>
        <lane id=":1496374287_0_2" index="2" disallow="tram rail_urban rail rail_electric ship" speed="13.89" length="0.28" shape="363.27,1965.24 363.21,1965.58"/>
    </edge>
    <edge id=":1496377176_0" function="internal">
        <lane id=":1496377176_0_0" index="0" disallow="tram rail_urban rail rail_electric ship" speed="13.89" length="0.10" shape="355.59,2026.14 355.59,2026.14"/>
        <lane id=":1496377176_0_1" index="1" disallow="tram rail_urban rail rail_electric ship" speed="13.89" length="0.10" shape="352.34,2025.57 352.34,2025.57"/>
    </edge>
    <edge id=":1496377177_0" function="internal">
        <lane id=":1496377177_0_0" index="0" disallow="tram rail_urban rail rail_electric ship" speed="13.89" length="0.30" shape="362.06,2026.36 362.03,2026.66"/>
        <lane id=":1496377177_0_1" index="1" disallow="tram rail_urban rail rail_electric ship" speed="13.89" length="0.30" shape="358.77,2026.09 358.74,2026.39"/>
    </edge>
    <edge id=":1496377178_0" function="internal">
        <lane id=":1496377178_0_0" index="0" disallow="tram rail_urban rail rail_electric ship" speed="9.72" length="4.49" shape="355.03,2042.49 354.09,2042.32 353.37,2042.73 352.88,2043.72 352.62,2045.30"/>
    </edge>
    <edge id=":1496377178_1" function="internal">
        <lane id=":1496377178_1_0" index="0" allow="delivery bicycle pedestrian" speed="5.56" length="9.79" shape="355.03,2042.49 352.46,2041.21 350.88,2040.00 349.61,2038.42 347.96,2036.03"/>
    </edge>
    <edge id=":1496377178_2" function="internal">
        <lane id=":1496377178_2_0" index="0" disallow="tram rail_urban rail rail_electric ship" speed="13.89" length="11.36" shape="354.17,2034.21 353.58,2037.49 353.20,2039.73 352.91,2041.99 352.62,2045.30"/>
        <lane id=":1496377178_2_1" index="1" disallow="tram rail_urban rail rail_electric ship" speed="13.89" length="11.36" shape="350.92,2033.64 350.31,2037.00 349.92,2039.31 349.63,2041.63 349.33,2045.04"/>
    </edge>
    <edge id=":1496377178_4" function="internal">
        <lane id=":1496377178_4_0" index="0" allow="delivery bicycle pedestrian" speed="9.72" length="5.63" shape="350.92,2033.64 350.38,2035.77 349.71,2036.88 348.90,2036.96 347.96,2036.03"/>
    </edge>
    <edge id=":1496377179_0" function="internal">
        <lane id=":1496377179_0_0" index="0" disallow="tram rail_urban rail rail_electric ship" speed="13.89" length="6.33" shape="360.91,2040.05 360.42,2046.33"/>
        <lane id=":1496377179_0_1" index="1" disallow="tram rail_urban rail rail_electric ship" speed="13.89" length="6.33" shape="357.62,2039.77 357.13,2046.12"/>
    </edge>
    <edge id=":1496377179_2" function="internal">
        <lane id=":1496377179_2_0" index="0" allow="delivery bicycle pedestrian" speed="9.72" length="4.49" shape="357.62,2039.77 357.35,2041.35 356.86,2042.35 356.15,2042.75 355.21,2042.58"/>
    </edge>
    <edge id=":1512916096_0" function="internal">
        <lane id=":1512916096_0_0" index="0" disallow="tram rail_urban rail rail_electric ship" speed="8.33" length="4.61" shape="285.43,2019.10 284.94,2023.69"/>
    </edge>
    <edge id=":1512916096_1" function="internal">
        <lane id=":1512916096_1_0" index="0" disallow="tram rail_urban rail rail_electric ship" speed="8.33" length="4.82" shape="285.43,2019.10 284.42,2020.20 283.54,2020.48 282.79,2019.95 282.17,2018.60"/>
    </edge>
    <edge id=":1512916096_2" function="internal">
        <lane id=":1512916096_2_0" index="0" disallow="tram rail_urban rail rail_electric ship" speed="8.33" length="4.88" shape="281.65,2023.45 282.17,2018.60"/>
    </edge>
    <edge id=":1512916096_3" function="internal">