<?xml version="1.0" encoding="UTF-8"?>

<!-- generated on Mon Nov  8 23:44:08 2021 by SUMO polyconvert Version 0.32.0
<?xml version="1.0" encoding="UTF-8"?>

<configuration xmlns:xsi="http://www.w3.org/2001/XMLSchema-instance" xsi:noNamespaceSchemaLocation="http://sumo.dlr.de/xsd/polyconvertConfiguration.xsd">

    <input>
        <net-file value="colonia_ls.net.xml"/>
        <osm-files value="colonia_ls.osm"/>
        <type-file value="typemap.xml"/>
    </input>

    <output>
        <output-file value="colonia_ls.poly.xml"/>
    </output>

    <processing>
        <poi-layer-offset value="5"/>
    </processing>

</configuration>
-->

<additional xmlns:xsi="http://www.w3.org/2001/XMLSchema-instance" xsi:noNamespaceSchemaLocation="http://sumo.dlr.de/xsd/additional_file.xsd">
    <location netOffset="-355835.86,-5642422.97" convBoundary="-618.85,-2723.02,5697.22,5093.44" origBoundary="6.939473,50.892040,7.031131,50.961931" projParameter="+proj=utm +zone=32 +ellps=WGS84 +datum=WGS84 +units=m +no_defs"/>

    <poly id="100036387" type="building" color="255,230,230" fill="1" layer="-1.00" shape="359.44,1628.36 354.06,1620.54 353.22,1619.31 352.04,1617.60 363.75,1609.60 365.72,1612.47 381.66,1635.66 383.96,1639.01 385.89,1641.81 374.10,1649.87 368.87,1642.26 365.05,1636.70 362.74,1633.34 361.39,1634.26 358.00,1629.33 359.44,1628.36"/>
    <poly id="100036387#1" type="tourism" color="207,245,201" fill="1" layer="-2.00" shape="359.44,1628.36 354.06,1620.54 353.22,1619.31 352.04,1617.60 363.75,1609.60 365.72,1612.47 381.66,1635.66 383.96,1639.01 385.89,1641.81 374.10,1649.87 368.87,1642.26 365.05,1636.70 362.74,1633.34 361.39,1634.26 358.00,1629.33 359.44,1628.36"/>
    <poly id="100234167" type="residential" color="235,235,227" fill="1" layer="-3.00" shape="382.37,1144.32 395.06,1162.46 409.79,1182.58 435.47,1219.72 440.81,1229.20 480.14,1284.42 500.86,1315.03 509.59,1326.96 532.74,1357.03 536.69,1362.17 537.06,1368.28 557.95,1395.19 561.84,1395.99 595.07,1399.19 599.09,1402.40 597.98,1412.36 595.30,1437.23 599.60,1438.31 621.03,1442.31 632.17,1441.12 637.18,1440.15 650.77,1440.12 671.62,1441.29 679.19,1435.46 682.59,1432.62 695.69,1332.77 698.68,1328.34 702.13,1288.20 704.05,1227.46 719.17,1231.57 878.53,1264.03 917.49,1257.69 1031.32,1281.20 1070.55,1209.50 1078.71,1193.51 1089.96,1169.47 1060.62,1154.98 1031.23,1144.59 991.69,1134.78 949.12,1123.87 952.25,1094.28 955.17,1090.09 951.60,1089.74 939.65,1088.63 934.64,1088.13 929.17,1087.61 921.61,1086.98 921.63,1014.92 927.55,1015.45 927.84,1009.61 949.75,1013.37 949.67,1014.17 958.34,1014.97 959.33,1003.92 960.76,990.85 966.89,992.51 1063.10,1018.54 1126.51,1033.53 1156.57,1039.66 1163.03,1029.15 1170.85,1011.93 1186.66,991.72 1194.78,977.49 1206.11,958.54 1214.25,937.98 1221.71,921.24 1231.72,888.32 1239.19,862.37 1245.72,837.88 1253.75,806.44 1253.71,797.45 1248.36,793.61 1230.24,785.54 1192.24,768.49 1129.41,739.10 1044.20,699.22 1037.21,702.57 1042.24,754.26 1044.59,802.79 1034.96,825.11 1029.43,829.69 1023.20,833.31 1016.09,834.99 1006.69,834.83 997.76,832.67 988.90,830.48 982.14,827.09 976.32,822.32 971.78,818.10 967.07,813.20 963.03,806.03 958.59,793.26 963.57,779.83 973.97,762.46 999.71,717.28 1012.23,695.23 1008.65,688.10 966.67,677.14 946.34,672.42 922.96,667.07 905.61,664.42 892.18,659.35 875.46,655.02 850.36,649.14 809.69,639.53 786.72,634.00 782.02,633.61 776.47,637.31 770.88,641.23 769.26,651.60 768.19,658.43 767.39,663.60 766.84,667.10 766.64,668.33 766.41,669.63 765.39,676.36 765.05,678.42 764.73,680.41 762.91,692.24 762.33,696.28 761.68,700.09 761.54,701.03 761.01,704.76 760.43,708.07 759.47,714.25 758.36,725.16 756.42,724.94 752.18,725.21 744.63,726.23 727.08,722.95 719.27,720.96 709.44,721.20 703.61,714.01 694.48,702.15 694.14,700.90 722.30,681.94 725.29,662.90 729.45,637.60 729.91,633.95 723.69,624.51 719.09,622.92 698.89,635.47 673.27,654.99 628.87,687.40 583.09,720.52 568.42,732.79 565.14,733.88 558.22,749.55 552.24,755.78 527.57,776.41 517.62,785.36 438.37,843.21 388.18,881.12 338.22,919.49 325.58,929.17 313.89,938.40 310.91,940.80 317.63,950.52 327.41,964.12 328.57,977.53 319.07,991.17 345.49,1057.35 360.41,1102.11 373.59,1130.73 382.37,1144.32"/>
    <poly id="100270809" type="amenity" color="237,199,199" fill="1" layer="-1.00" shape="135.14,1130.26 136.66,1132.22 140.63,1137.35 183.03,1197.40 195.04,1216.96 215.48,1259.28 245.02,1249.62 270.99,1234.09 301.81,1211.95 317.97,1195.70 348.23,1156.55 334.31,1132.04 311.92,1086.87 308.22,1082.40 303.16,1079.28 298.34,1073.69 295.05,1066.80 295.25,1057.35 293.84,1051.19 279.27,1025.23 135.14,1130.26"/>
    <poly id="10072086" type="water" color="181,209,209" fill="1" layer="-4.00" shape="1126.83,1920.85 1124.84,1922.72 1122.65,1924.00 1120.19,1924.46 1117.73,1924.19 1115.61,1923.31 1113.63,1922.05 1112.27,1920.48 1110.59,1918.17 1107.59,1909.91 1108.24,1909.57 1107.16,1905.80 1095.57,1866.49 1089.63,1845.18 1088.49,1840.11 1087.33,1835.26 1086.18,1830.39 1084.60,1828.11 1083.77,1825.75 1084.60,1825.34 1081.46,1813.59 1080.40,1813.63 1078.71,1805.86 1077.27,1797.97 1076.93,1790.65 1077.08,1780.04 1081.02,1756.34 1101.37,1647.08 1109.61,1603.63 1124.94,1535.27 1146.64,1428.43 1167.96,1319.77 1206.19,1159.17 1209.14,1147.57 1159.99,1137.65 1142.83,1170.46 1128.63,1202.37 1108.88,1254.53 1095.03,1292.81 1085.31,1325.12 1076.06,1362.17 1069.02,1391.96 1058.76,1445.01 1051.87,1489.80 1045.82,1540.71 1043.07,1587.35 1040.36,1636.44 1039.65,1688.29 1039.21,1818.93 1051.27,1819.04 1062.18,1819.14 1075.30,1865.09 1082.52,1896.85 1081.83,1900.29 1080.42,1903.55 1079.25,1905.18 1077.04,1907.40 1064.83,1910.68 1074.77,2034.16 1126.83,1920.85"/>
    <poly id="121935980" type="building" color="255,230,230" fill="1" layer="-1.00" shape="443.55,2010.83 441.84,2015.59 440.87,2015.39 430.61,2013.10 436.95,1999.78 444.54,1999.81 449.48,1999.82 449.58,2010.88 443.55,2010.83"/>
    <poly id="124894518" type="leisure" color="207,245,201" fill="1" layer="-2.00" shape="578.67,1275.87 588.10,1276.83 600.29,1278.18 603.36,1237.56 596.50,1238.33 594.71,1221.22 595.01,1219.36 596.08,1218.31 570.41,1221.01 572.23,1239.59 524.31,1244.81 522.91,1263.13 527.19,1263.47 526.53,1271.52 578.45,1279.63 578.67,1275.87"/>
    <poly id="124896894" type="tourism" color="207,245,201" fill="1" layer="-2.00" shape="421.43,1938.56 416.53,1952.61 445.34,1963.30 452.51,1951.11 421.43,1938.56"/>
    <poly id="136141174" type="leisure" color="207,245,201" fill="1" layer="-2.00" shape="229.78,1882.29 228.09,1882.59 226.71,1881.68 225.85,1880.77 225.11,1878.95 225.44,1877.47 226.30,1875.90 228.05,1874.87 229.95,1874.77 230.42,1873.87 231.51,1873.16 233.71,1872.87 236.08,1873.01 239.10,1873.77 241.61,1875.31 242.89,1876.42 241.42,1879.06 242.24,1879.91 242.00,1881.20 241.37,1882.35 239.89,1883.20 239.22,1884.88 238.86,1887.43 236.43,1887.75 235.19,1887.84 235.25,1886.00 234.45,1884.51 232.16,1882.57 230.98,1882.09 229.78,1882.29"/>
    <poly id="136413966" type="building" color="255,230,230" fill="1" layer="-1.00" shape="341.29,1930.45 338.43,1929.54 340.70,1917.69 343.83,1918.66 349.70,1919.93 347.16,1931.71 341.29,1930.45"/>
    <poly id="136413967" type="building" color="255,230,230" fill="1" layer="-1.00" shape="323.17,1940.85 325.32,1934.03 330.02,1935.47 328.00,1941.90 327.85,1941.89 323.17,1940.85"/>
    <poly id="136413969" type="building" color="255,230,230" fill="1" layer="-1.00" shape="314.78,1953.97 316.25,1947.12 326.37,1949.15 324.94,1956.09 314.78,1953.97"/>
    <poly id="136413973" type="building" color="255,230,230" fill="1" layer="-1.00" shape="320.43,1943.27 321.21,1940.43 323.17,1940.85 327.85,1941.89 327.19,1945.11 320.43,1943.27"/>
    <poly id="136413974" type="building" color="255,230,230" fill="1" layer="-1.00" shape="339.48,1938.26 337.00,1937.51 335.19,1936.91 337.30,1929.20 338.43,1929.54 341.29,1930.45 347.16,1931.71 345.43,1939.72 342.48,1939.03 339.48,1938.26"/>
    <poly id="142301795" type="parking" color="184,184,179" fill="1" layer="-1.00" shape="947.04,2065.83 947.29,2021.94 957.04,2021.99 956.79,2065.88 947.04,2065.83"/>
    <poly id="142387040" type="landuse" color="194,194,130" fill="1" layer="-3.00" shape="1048.25,2022.56 1047.59,1994.23 1046.68,1994.12 1046.22,1995.16 1045.61,1997.29 1044.23,2000.91 1040.72,2006.22 1041.06,2013.94 1043.31,2013.84 1047.55,2022.58 1048.25,2022.56"/>
    <poly id="142387046" type="parking" color="184,184,179" fill="1" layer="-1.00" shape="981.86,2033.15 1001.63,2033.11 1001.77,2026.98 1009.12,2027.02 1009.66,2047.10 999.03,2046.61 983.42,2046.16 981.74,2046.11 981.86,2033.15"/>
    <poly id="142387051" type="building" color="255,230,230" fill="1" layer="-1.00" shape="978.46,2056.33 974.42,2056.59 974.98,2032.63 978.88,2032.69 978.46,2056.33"/>
    <poly id="152401539" type="building" color="255,230,230" fill="1" layer="-1.00" shape="678.59,1871.83 678.54,1867.71 678.47,1862.03 699.53,1864.07 706.05,1864.69 706.50,1859.77 707.02,1859.81 707.17,1858.37 709.54,1858.71 712.66,1859.07 711.38,1872.52 711.41,1875.66 708.13,1875.27 678.59,1871.83"/>
    <poly id="152401539#1" type="historic" color="128,255,128" fill="1" layer="-1.00" shape="678.59,1871.83 678.54,1867.71 678.47,1862.03 699.53,1864.07 706.05,1864.69 706.50,1859.77 707.02,1859.81 707.17,1858.37 709.54,1858.71 712.66,1859.07 711.38,1872.52 711.41,1875.66 708.13,1875.27 678.59,1871.83"/>
    <poly id="152401540" type="building" color="255,230,230" fill="1" layer="-1.00" shape="714.21,1899.19 716.56,1873.15 715.65,1872.98 711.38,1872.52 711.41,1875.66 710.94,1881.90 707.62,1881.77 706.54,1895.18 706.31,1898.03 706.27,1898.53 714.21,1899.19"/>
    <poly id="152401544" type="building" color="255,230,230" fill="1" layer="-1.00" shape="645.59,1914.09 646.05,1908.79 643.24,1908.18 645.18,1887.77 638.26,1887.12 636.43,1906.74 632.46,1905.98 629.89,1905.37 630.40,1899.72 632.39,1878.46 649.44,1880.08 649.54,1878.88 650.78,1879.01 650.87,1877.95 652.83,1878.14 652.74,1879.19 669.20,1880.73 669.30,1879.69 676.75,1880.40 672.97,1893.20 665.46,1918.66 661.61,1917.79 652.42,1915.67 646.91,1914.40 645.59,1914.09"/>
    <poly id="152401559" type="building" color="255,230,230" fill="1" layer="-1.00" shape="695.14,1917.98 704.93,1920.44 705.17,1919.49 711.34,1921.05 711.11,1921.92 721.76,1924.60 723.49,1917.74 696.88,1911.07 695.14,1917.98"/>
    <poly id="152406096" type="building" color="255,230,230" fill="1" layer="-1.00" shape="991.36,1945.63 992.18,1955.26 1006.13,1954.47 1005.33,1944.80 991.36,1945.63"/>
    <poly id="152406101" type="building" color="255,230,230" fill="1" layer="-1.00" shape="970.86,1951.87 970.24,1936.77 969.06,1936.68 968.97,1932.39 979.42,1932.07 981.28,1932.04 981.63,1941.82 981.40,1941.82 981.72,1950.42 970.86,1951.87"/>
    <poly id="152406104" type="building" color="255,230,230" fill="1" layer="-1.00" shape="975.99,1980.77 970.86,1951.87 981.72,1950.42 983.33,1950.21 986.90,1973.18 987.94,1978.71 975.99,1980.77"/>
    <poly id="154146117" type="parking" color="184,184,179" fill="1" layer="-1.00" shape="616.07,1560.57 614.77,1573.02 614.37,1577.09 644.92,1581.48 646.91,1564.72 616.07,1560.57"/>
    <poly id="154147116" type="building" color="255,230,230" fill="1" layer="-1.00" shape="664.58,1752.78 665.73,1743.34 675.99,1744.91 674.56,1754.43 664.58,1752.78"/>
    <poly id="154147118" type="building" color="255,230,230" fill="1" layer="-1.00" shape="642.60,1751.47 644.73,1734.18 632.96,1732.34 630.55,1749.54 642.60,1751.47"/>
    <poly id="154147122" type="building" color="255,230,230" fill="1" layer="-1.00" shape="654.18,1744.07 657.77,1744.65 658.12,1742.10 665.73,1743.34 666.53,1737.71 664.67,1737.42 655.56,1735.99 654.18,1744.07"/>
    <poly id="154235171" type="building" color="255,230,230" fill="1" layer="-1.00" shape="415.15,1911.46 416.31,1908.39 421.60,1910.40 420.04,1913.33 415.15,1911.46"/>
    <poly id="154235177" type="building" color="255,230,230" fill="1" layer="-1.00" shape="450.13,1909.10 443.11,1902.89 452.33,1892.36 458.10,1897.36 456.03,1900.15 453.01,1904.63 453.04,1904.78 450.13,1909.10"/>
    <poly id="154235178" type="building" color="255,230,230" fill="0" layer="-1.00" shape="460.48,1904.31 458.29,1908.00 453.01,1904.63 456.03,1900.15 458.10,1897.36 460.14,1899.14 461.00,1898.42 463.53,1900.18 463.24,1900.60 460.55,1904.25"/>
    <poly id="154235180" type="building" color="255,230,230" fill="1" layer="-1.00" shape="450.46,1915.32 453.36,1910.15 464.00,1916.34 460.52,1921.75 450.46,1915.32"/>
    <poly id="154235181" type="building" color="255,230,230" fill="1" layer="-1.00" shape="447.74,1920.25 441.80,1916.81 445.06,1910.92 447.65,1912.76 447.24,1913.39 450.24,1915.21 447.74,1920.25"/>
    <poly id="154235188" type="building" color="255,230,230" fill="1" layer="-1.00" shape="432.02,1918.93 431.56,1919.93 424.97,1916.92 425.77,1915.51 427.46,1912.62 428.85,1910.30 435.41,1913.39 435.98,1913.65 447.79,1920.50 445.02,1925.92 438.04,1922.81 438.39,1921.82 432.02,1918.93"/>
    <poly id="159178091" type="building" color="255,230,230" fill="0" layer="-1.00" shape="380.29,1717.90 375.22,1725.29 360.05,1748.14 361.53,1749.11 361.08,1749.87 371.74,1757.04 374.06,1753.56"/>
    <poly id="159178091#1" type="historic" color="128,255,128" fill="0" layer="-1.00" shape="380.29,1717.90 375.22,1725.29 360.05,1748.14 361.53,1749.11 361.08,1749.87 371.74,1757.04 374.06,1753.56"/>
    <poly id="159178101" type="building" color="255,230,230" fill="1" layer="-1.00" shape="310.27,1717.05 315.58,1707.34 316.55,1705.63 334.42,1715.79 335.42,1714.05 339.10,1716.15 338.16,1717.80 343.93,1721.05 336.64,1731.90 310.27,1717.05"/>
    <poly id="159178110" type="building" color="255,230,230" fill="1" layer="-1.00" shape="277.04,1701.40 281.93,1691.12 298.88,1699.30 315.58,1707.34 310.27,1717.05 310.05,1717.40 300.61,1712.70 294.31,1709.75 285.80,1705.58 277.04,1701.40"/>
    <poly id="159178117" type="building" color="255,230,230" fill="1" layer="-1.00" shape="367.26,1737.06 360.05,1748.14 338.46,1733.46 336.64,1731.90 343.93,1721.05 344.08,1720.83 344.35,1721.02 344.07,1721.45 345.45,1722.36 367.26,1737.06"/>
    <poly id="159178120" type="building" color="255,230,230" fill="1" layer="-1.00" shape="329.63,1681.24 329.76,1680.94 333.73,1672.79 334.16,1671.94 351.30,1681.94 347.80,1687.93 344.90,1686.26 343.33,1689.03 329.63,1681.24"/>
    <poly id="159178122" type="building" color="255,230,230" fill="1" layer="-1.00" shape="263.99,1696.18 265.44,1693.32 277.09,1669.20 278.91,1670.03 289.40,1674.90 281.93,1691.12 277.04,1701.40 276.58,1702.30 263.99,1696.18"/>
    <poly id="159178122#1" type="tourism" color="207,245,201" fill="1" layer="-2.00" shape="263.99,1696.18 265.44,1693.32 277.09,1669.20 278.91,1670.03 289.40,1674.90 281.93,1691.12 277.04,1701.40 276.58,1702.30 263.99,1696.18"/>
    <poly id="159178128" type="building" color="255,230,230" fill="1" layer="-1.00" shape="355.50,1697.97 356.41,1696.43 353.68,1694.66 354.44,1693.48 352.03,1691.92 355.61,1686.36 361.40,1695.00 358.20,1699.79 355.50,1697.97"/>
    <poly id="159178129" type="building" color="255,230,230" fill="1" layer="-1.00" shape="379.31,1711.95 379.88,1711.46 384.38,1714.99 380.29,1717.90 375.22,1725.29 373.22,1722.88 372.10,1723.71 361.57,1710.63 361.86,1710.28 358.61,1706.23 365.98,1700.00 369.37,1704.13 370.20,1703.45 372.83,1706.68 373.48,1706.16 376.08,1709.29 376.75,1708.86 379.31,1711.95"/>
    <poly id="161720363" type="building" color="255,230,230" fill="1" layer="-1.00" shape="775.86,1973.81 774.53,1971.34 773.55,1968.98 772.98,1966.45 772.66,1963.81 772.56,1962.16 775.54,1962.39 775.54,1962.58 780.59,1962.91 783.23,1963.10 783.55,1954.08 785.50,1954.20 788.12,1954.43 787.05,1964.58 784.51,1966.06 785.85,1968.39 776.08,1973.71 775.86,1973.81"/>
    <poly id="161720365" type="building" color="255,230,230" fill="1" layer="-1.00" shape="858.15,1992.88 858.56,1990.27 860.08,1980.37 852.82,1979.51 841.30,1978.61 839.87,1990.54 844.55,1991.06 845.35,1991.58 851.43,1992.26 852.34,1992.04 858.15,1992.88"/>
    <poly id="161720366" type="building" color="255,230,230" fill="1" layer="-1.00" shape="829.75,1995.54 829.76,1989.24 829.90,1982.63 801.81,1982.35 801.77,1982.91 800.42,1995.31 805.92,1995.36 817.59,1995.44 829.75,1995.54"/>
    <poly id="161720367" type="building" color="255,230,230" fill="1" layer="-1.00" shape="906.46,2000.60 908.33,1988.32 911.37,1988.75 920.97,1990.15 919.54,2002.62 906.46,2000.60"/>
    <poly id="161720368" type="building" color="255,230,230" fill="1" layer="-1.00" shape="932.40,2004.31 919.54,2002.62 920.97,1990.15 924.72,1990.68 934.27,1992.06 932.40,2004.31"/>
    <poly id="161720370" type="building" color="255,230,230" fill="1" layer="-1.00" shape="963.80,2007.85 964.18,1994.36 964.36,1994.32 973.00,1994.48 972.94,1996.36 972.50,2008.41 963.80,2007.85"/>
    <poly id="161720371" type="building" color="255,230,230" fill="1" layer="-1.00" shape="776.08,1973.71 785.85,1968.39 787.32,1967.62 796.81,1980.82 797.93,1982.42 801.77,1982.91 800.42,1995.31 791.37,1994.71 776.08,1973.71"/>
    <poly id="161720372" type="building" color="255,230,230" fill="1" layer="-1.00" shape="932.40,2004.31 934.27,1992.06 940.71,1992.64 949.56,1993.08 948.98,2005.37 932.40,2004.31"/>
    <poly id="161720373" type="amenity" color="237,199,199" fill="1" layer="-1.00" shape="889.10,1996.68 882.42,1995.68 883.84,1980.14 890.45,1980.81 890.94,1980.89 891.65,1981.30 892.09,1981.78 892.34,1982.26 892.51,1983.07 903.16,1984.18 903.38,1982.13 909.14,1982.72 908.33,1988.32 906.46,2000.60 889.10,1996.68"/>
    <poly id="161720373#1" type="building" color="255,230,230" fill="1" layer="-1.00" shape="889.10,1996.68 882.42,1995.68 883.84,1980.14 890.45,1980.81 890.94,1980.89 891.65,1981.30 892.09,1981.78 892.34,1982.26 892.51,1983.07 903.16,1984.18 903.38,1982.13 909.14,1982.72 908.33,1988.32 906.46,2000.60 889.10,1996.68"/>
    <poly id="161720374" type="amenity" color="237,199,199" fill="1" layer="-1.00" shape="858.59,1959.45 857.80,1966.42 864.34,1967.20 861.64,1989.44 861.26,1989.40 861.14,1990.48 861.89,1990.55 861.90,1990.35 865.29,1990.72 865.29,1990.95 866.34,1991.10 866.38,1990.86 874.77,1991.88 874.79,1992.09 875.68,1992.17 875.72,1991.97 879.21,1992.32 879.22,1992.49 880.11,1992.59 880.21,1991.65 879.99,1991.64 883.53,1962.31 883.86,1962.32 883.99,1961.19 883.30,1961.17 883.48,1959.04 882.74,1958.95 882.71,1959.23 881.15,1959.07 881.21,1958.79 878.52,1958.51 878.43,1959.70 876.47,1957.10 876.19,1957.08 873.25,1956.88 870.59,1958.87 870.74,1957.82 868.35,1957.55 868.32,1957.79 866.64,1957.61 866.67,1957.33 865.92,1957.30 865.63,1959.26 864.92,1959.17 864.83,1960.20 863.18,1960.06 863.09,1960.33 861.13,1960.15 861.18,1959.72 858.59,1959.45"/>
    <poly id="161720374#1" type="building" color="255,230,230" fill="1" layer="-1.00" shape="858.59,1959.45 857.80,1966.42 864.34,1967.20 861.64,1989.44 861.26,1989.40 861.14,1990.48 861.89,1990.55 861.90,1990.35 865.29,1990.72 865.29,1990.95 866.34,1991.10 866.38,1990.86 874.77,1991.88 874.79,1992.09 875.68,1992.17 875.72,1991.97 879.21,1992.32 879.22,1992.49 880.11,1992.59 880.21,1991.65 879.99,1991.64 883.53,1962.31 883.86,1962.32 883.99,1961.19 883.30,1961.17 883.48,1959.04 882.74,1958.95 882.71,1959.23 881.15,1959.07 881.21,1958.79 878.52,1958.51 878.43,1959.70 876.47,1957.10 876.19,1957.08 873.25,1956.88 870.59,1958.87 870.74,1957.82 868.35,1957.55 868.32,1957.79 866.64,1957.61 866.67,1957.33 865.92,1957.30 865.63,1959.26 864.92,1959.17 864.83,1960.20 863.18,1960.06 863.09,1960.33 861.13,1960.15 861.18,1959.72 858.59,1959.45"/>
    <poly id="169458945" type="natural" color="140,196,107" fill="1" layer="-4.00" shape="482.50,1531.21 446.13,1550.23 465.79,1585.93 472.54,1565.88 471.49,1558.44 478.07,1544.97 480.62,1539.50 482.50,1531.21"/>
    <poly id="169463498" type="parking" color="184,184,179" fill="1" layer="-1.00" shape="361.60,1695.15 354.85,1685.67 352.08,1681.65 342.06,1666.51 369.08,1649.37 367.81,1647.93 374.44,1654.77 377.89,1655.40 393.90,1639.50 396.55,1640.67 399.43,1641.96 378.74,1661.68 369.02,1670.82 372.73,1676.33 361.60,1695.15"/>
    <poly id="169466356" type="parking" color="184,184,179" fill="1" layer="-1.00" shape="313.06,1705.54 299.03,1698.95 281.93,1691.12 289.40,1674.90 306.21,1682.48 320.34,1689.43 314.13,1703.50 313.06,1705.54"/>
    <poly id="169482623" type="parking" color="184,184,179" fill="1" layer="-1.00" shape="343.93,1721.05 344.08,1720.83 358.22,1700.05 355.26,1698.23 355.82,1697.04 353.35,1695.56 353.90,1694.06 351.29,1692.53 354.85,1685.67 352.08,1681.65 351.51,1682.47 348.07,1688.73 344.48,1686.81 343.28,1688.91 338.17,1686.01 336.94,1688.19 331.97,1685.37 333.20,1683.19 329.74,1681.40 324.57,1691.48 320.34,1689.43 314.13,1703.50 333.80,1715.46 334.97,1713.53 339.27,1716.12 338.11,1717.78 339.98,1718.71 343.93,1721.05"/>
    <poly id="175591600" type="building" color="255,230,230" fill="1" layer="-1.00" shape="539.69,2026.46 530.72,2025.44 530.35,2030.78 541.34,2031.50 553.07,2032.38 552.75,2027.62 539.69,2026.46"/>
    <poly id="175792432" type="building" color="255,230,230" fill="1" layer="-1.00" shape="733.27,1872.19 726.97,1871.30 728.40,1861.36 730.72,1861.76 735.29,1862.33 733.27,1872.19"/>
    <poly id="175792437" type="building" color="255,230,230" fill="1" layer="-1.00" shape="723.74,1891.72 730.83,1891.81 736.56,1891.86 745.91,1892.00 746.18,1897.95 730.31,1897.65 723.33,1897.48 723.46,1895.25 723.74,1891.72"/>
    <poly id="175792438" type="building" color="255,230,230" fill="1" layer="-1.00" shape="726.97,1871.30 728.40,1861.36 725.99,1861.05 720.59,1860.22 716.59,1859.66 712.66,1859.07 711.38,1872.52 715.65,1872.98 716.26,1869.83 724.72,1871.03 726.97,1871.30"/>
    <poly id="175792439" type="building" color="255,230,230" fill="1" layer="-1.00" shape="757.08,1878.59 755.87,1868.31 755.25,1867.40 754.52,1866.43 744.32,1864.24 735.29,1862.33 733.27,1872.19 737.32,1873.02 746.32,1874.84 746.90,1879.32 757.08,1878.59"/>
    <poly id="176030612" type="building" color="255,230,230" fill="1" layer="-1.00" shape="516.31,1808.42 534.26,1812.79 541.20,1787.68 527.03,1784.79 521.90,1796.11 516.31,1808.42"/>
    <poly id="176030613" type="building" color="255,230,230" fill="1" layer="-1.00" shape="500.06,1827.92 489.25,1823.25 478.31,1818.00 488.70,1803.18 506.03,1812.62 500.06,1827.92"/>
    <poly id="176030614" type="building" color="255,230,230" fill="1" layer="-1.00" shape="479.19,1800.62 491.54,1783.66 473.14,1775.22 468.58,1785.01 463.34,1796.23 479.19,1800.62"/>
    <poly id="176030615" type="building" color="255,230,230" fill="1" layer="-1.00" shape="438.87,1812.37 438.72,1812.52 438.58,1812.38 448.08,1802.96 490.89,1846.36 481.55,1855.60 438.87,1812.37"/>
    <poly id="176030615#1" type="tourism" color="207,245,201" fill="1" layer="-2.00" shape="438.87,1812.37 438.72,1812.52 438.58,1812.38 448.08,1802.96 490.89,1846.36 481.55,1855.60 438.87,1812.37"/>
    <poly id="176030616" type="building" color="255,230,230" fill="1" layer="-1.00" shape="510.37,1844.18 525.03,1845.59 531.71,1822.28 514.47,1815.74 512.55,1828.97 510.37,1844.18"/>
    <poly id="176030617" type="building" color="255,230,230" fill="1" layer="-1.00" shape="503.59,1754.48 520.73,1757.76 514.33,1775.11 506.21,1772.52 499.30,1770.88 503.59,1754.48"/>
    <poly id="176030618" type="building" color="255,230,230" fill="1" layer="-1.00" shape="553.30,1736.76 551.09,1744.68 546.26,1761.55 540.56,1782.46 527.58,1779.10 532.13,1750.31 541.12,1733.38 553.30,1736.76"/>
    <poly id="176030619" type="building" color="255,230,230" fill="1" layer="-1.00" shape="438.58,1812.38 424.09,1798.00 428.37,1792.61 441.23,1776.49 460.16,1724.10 461.78,1724.88 461.90,1724.59 473.30,1729.95 472.21,1733.06 472.34,1733.12 447.50,1802.37 448.08,1802.96 438.58,1812.38"/>
    <poly id="176030619#1" type="tourism" color="207,245,201" fill="1" layer="-2.00" shape="438.58,1812.38 424.09,1798.00 428.37,1792.61 441.23,1776.49 460.16,1724.10 461.78,1724.88 461.90,1724.59 473.30,1729.95 472.21,1733.06 472.34,1733.12 447.50,1802.37 448.08,1802.96 438.58,1812.38"/>
    <poly id="176030620" type="building" color="255,230,230" fill="1" layer="-1.00" shape="530.59,1856.26 529.02,1870.08 515.46,1868.67 514.82,1876.45 528.22,1877.89 527.24,1885.68 509.24,1883.54 502.49,1876.73 481.55,1855.60 490.89,1846.36 497.25,1852.60 530.59,1856.26"/>
    <poly id="179639803" type="building" color="255,230,230" fill="1" layer="-1.00" shape="647.96,1646.11 623.51,1642.34 623.45,1642.72 623.40,1642.50 624.35,1633.51 643.74,1636.66 648.69,1637.78 647.96,1646.11"/>
    <poly id="179639804" type="building" color="255,230,230" fill="1" layer="-1.00" shape="664.59,1625.17 663.22,1634.38 660.69,1661.20 653.16,1660.50 652.84,1661.29 649.12,1660.57 649.73,1658.48 646.88,1657.65 647.96,1646.11 648.69,1637.78 649.59,1629.96 650.57,1623.44 664.59,1625.17"/>
    <poly id="179639805" type="building" color="255,230,230" fill="1" layer="-1.00" shape="667.04,1634.97 663.22,1634.38 660.69,1661.20 660.40,1664.81 663.66,1665.28 667.04,1634.97"/>
    <poly id="179639806" type="building" color="255,230,230" fill="1" layer="-1.00" shape="662.64,1606.60 663.65,1600.49 685.21,1604.05 684.20,1610.16 662.64,1606.60"/>
    <poly id="179640115" type="parking" color="184,184,179" fill="1" layer="-1.00" shape="793.47,1647.06 776.32,1625.90 778.91,1614.57 799.17,1622.53 797.69,1637.93 793.47,1647.06"/>
    <poly id="187212426" type="building" color="255,230,230" fill="1" layer="-1.00" shape="157.92,1732.06 189.78,1736.23 189.90,1736.79 192.62,1737.05 196.78,1737.31 198.20,1718.83 213.36,1720.05 212.86,1726.97 212.26,1736.03 210.52,1763.69 197.05,1762.79 195.47,1762.92 196.00,1747.30 192.16,1746.73 188.19,1746.18 188.06,1747.32 171.13,1745.04 171.07,1745.26 159.30,1743.78 159.27,1743.21 156.57,1742.95 157.92,1732.06"/>
    <poly id="187212428" type="historic" color="128,255,128" fill="1" layer="-1.00" shape="200.90,1727.98 201.62,1727.81 202.49,1728.97 203.99,1729.78 205.59,1730.03 209.37,1729.40 219.36,1732.33 219.10,1733.42 209.06,1730.19 205.45,1730.76 203.70,1730.56 202.04,1729.56 200.90,1727.98"/>
    <poly id="187240667" type="building" color="255,230,230" fill="1" layer="-1.00" shape="355.89,1816.62 355.08,1818.96 354.46,1821.22 349.60,1819.75 351.18,1813.54 344.95,1809.11 354.15,1795.42 355.61,1793.44 366.37,1800.64 364.92,1802.92 355.89,1816.62"/>
    <poly id="187240668" type="building" color="255,230,230" fill="1" layer="-1.00" shape="344.95,1809.11 344.22,1808.59 338.64,1816.49 349.60,1819.75 351.18,1813.54 344.95,1809.11"/>
    <poly id="187240669" type="building" color="255,230,230" fill="1" layer="-1.00" shape="357.89,1841.84 344.23,1837.90 346.14,1831.36 348.70,1822.95 349.60,1819.75 354.46,1821.22 363.11,1823.44 357.89,1841.84"/>
    <poly id="187240670" type="building" color="255,230,230" fill="1" layer="-1.00" shape="357.89,1841.84 354.56,1853.04 355.54,1853.38 354.63,1856.51 353.72,1856.27 352.34,1861.42 350.51,1867.38 347.58,1866.13 338.07,1862.09 337.41,1861.81 337.88,1860.35 338.34,1858.68 340.88,1850.45 344.23,1837.90 357.89,1841.84"/>
    <poly id="187241839" type="building" color="255,230,230" fill="1" layer="-1.00" shape="335.62,1892.05 337.42,1886.16 338.33,1883.36 339.25,1881.58 356.88,1886.63 353.73,1897.33 346.82,1895.14 344.91,1894.58 335.62,1892.05"/>
    <poly id="187241840" type="building" color="255,230,230" fill="1" layer="-1.00" shape="329.28,1883.34 337.42,1886.16 338.33,1883.36 339.25,1881.58 341.67,1877.04 332.91,1873.52 332.20,1875.18 332.63,1875.38 330.78,1879.95 329.28,1883.34"/>
    <poly id="187241841" type="building" color="255,230,230" fill="1" layer="-1.00" shape="326.40,1890.65 314.38,1885.47 316.87,1878.24 319.79,1870.27 332.20,1875.18 332.63,1875.38 330.78,1879.95 329.28,1883.34 326.40,1890.65"/>
    <poly id="187241841#1" type="historic" color="128,255,128" fill="1" layer="-1.00" shape="326.40,1890.65 314.38,1885.47 316.87,1878.24 319.79,1870.27 332.20,1875.18 332.63,1875.38 330.78,1879.95 329.28,1883.34 326.40,1890.65"/>
    <poly id="187242324" type="landuse" color="194,194,130" fill="1" layer="-3.00" shape="133.83,1717.55 124.83,1715.65 123.34,1714.85 122.73,1713.47 122.53,1711.64 122.75,1709.87 123.02,1707.90 123.85,1706.19 125.61,1704.45 127.74,1702.96 130.94,1701.80 135.62,1701.06 139.15,1700.74 142.12,1701.13 148.39,1702.58 151.99,1703.90 157.96,1706.65 161.53,1708.25 166.79,1710.31 196.87,1715.71 211.12,1716.76 214.78,1717.60 230.45,1721.02 241.97,1723.33 251.57,1725.72 260.08,1727.90 273.01,1732.55 288.06,1740.71 296.64,1746.48 331.00,1772.97 333.34,1774.72 335.18,1776.95 335.61,1779.07 334.06,1784.18 332.16,1790.86 300.02,1768.22 299.52,1766.18 298.21,1764.08 293.88,1761.24 276.91,1750.09 268.96,1747.02 271.48,1740.93 269.38,1740.04 266.89,1746.36 253.31,1740.36 246.56,1738.22 224.43,1731.64 220.08,1730.89 213.45,1729.34 215.75,1719.48 197.65,1718.17 196.60,1726.78 133.83,1717.55"/>
    <poly id="187248182" type="landuse" color="194,194,130" fill="1" layer="-3.00" shape="331.30,1793.27 330.24,1796.45 275.60,1776.68 269.62,1773.99 275.43,1759.64 254.56,1751.52 240.77,1746.61 222.89,1742.02 223.24,1737.59 224.43,1731.64 246.56,1738.22 253.31,1740.36 266.89,1746.36 268.96,1747.02 276.91,1750.09 293.88,1761.24 292.60,1763.17 300.02,1768.22 332.16,1790.86 331.30,1793.27"/>
    <poly id="194012803" type="parking" color="184,184,179" fill="1" layer="-1.00" shape="390.14,2057.41 404.81,2060.32 408.13,2046.78 412.71,2028.12 396.83,2026.13 390.14,2057.41"/>
    <poly id="195798882" type="building" color="255,230,230" fill="1" layer="-1.00" shape="924.72,1990.68 923.91,1974.57 929.29,1974.00 929.70,1983.87 935.56,1983.59 934.27,1992.06 924.72,1990.68"/>
    <poly id="195798886" type="building" color="255,230,230" fill="1" layer="-1.00" shape="749.03,1966.61 748.41,1969.86 746.47,1969.47 746.13,1971.35 748.14,1971.56 746.97,1977.65 745.12,1977.48 744.92,1978.64 751.08,1979.47 751.15,1978.19 752.27,1978.33 753.35,1978.46 753.21,1979.64 759.26,1980.53 760.74,1969.25 760.34,1969.22 760.69,1966.97 749.03,1966.61"/>