[General]
cmdenv-express-mode = true
cmdenv-autoflush = true
cmdenv-status-frequency = 10000000s
**.cmdenv-log-level = info

ned-path = .
image-path = ../../images

network = veins_manhattan.src.Scenario


##########################################################
#            Simulation parameters                       #
##########################################################
debug-on-errors = true
print-undisposed = true

sim-time-limit = 1000s
#tkenv-image-path = "/home/you/model-framework/images"

**.scalar-recording = true
**.vector-recording = true
 
**.debug = false
**.coreDebug = false

*.playgroundSizeX = 6000m
*.playgroundSizeY = 6000m
*.playgroundSizeZ = 5m


##########################################################
# Annotation parameters                                  #
##########################################################
*.annotations.draw = true

##########################################################
#            TraCIScenarioManager parameters             #
##########################################################
*.manager.updateInterval = 1s
*.manager.host = "localhost"
*.manager.port = 9999
*.manager.moduleType = "veins_manhattan.src.car.MyCar" # PERMITE USAR O PRÓPRIO MODULO
*.manager.autoShutdown = true
*.manager.launchConfig = xmldoc("demo.launchd.xml")

##########################################################
#                       RSU SETTINGS                     #
#                                                        #
#                                                        #
##########################################################
*.rsu[0].mobility.x = 300
*.rsu[0].mobility.y = 300
*.rsu[0].mobility.z = 3

#*.rsu[*].applType = "TraCIDemoRSU11p"
*.rsu[*].applType = "veins_manhattan.src.MyRSUApp"
*.rsu[*].appl.windowTime = 15.0
*.rsu[*].appl.headerLength = 80 bit
*.rsu[*].appl.sendBeacons = true
*.rsu[*].appl.dataOnSch = true
*.rsu[*].appl.beaconInterval = 1s
*.rsu[*].appl.beaconUserPriority = 7
*.rsu[*].appl.dataUserPriority = 5
#*.rsu[0].mobility.x = 2000
#*.rsu[0].mobility.y = 2000
#*.rsu[0].mobility.z = 3

#*.rsu[*].applType = "TraCIDemoRSU11p"
#*.rsu[*].appl.headerLength = 80 bit
#*.rsu[*].appl.sendBeacons = false
#*.rsu[*].appl.dataOnSch = false
#*.rsu[*].appl.beaconInterval = 1s
#*.rsu[*].appl.beaconUserPriority = 7
#*.rsu[*].appl.dataUserPriority = 5

##########################################################
#            11p specific parameters                     #
#                                                        #
#                    NIC-Settings                        #
##########################################################
*.connectionManager.sendDirect = true
*.connectionManager.maxInterfDist = 2600m
*.connectionManager.drawMaxIntfDist = false

*.**.nic.mac1609_4.useServiceChannel = false

*.**.nic.mac1609_4.txPower = 20mW
*.**.nic.mac1609_4.bitrate = 6Mbps
*.**.nic.phy80211p.sensitivity = -89dBm

*.**.nic.phy80211p.useThermalNoise = true
*.**.nic.phy80211p.thermalNoise = -110dBm

*.**.nic.phy80211p.decider = xmldoc("config.xml")
*.**.nic.phy80211p.analogueModels = xmldoc("config.xml")
*.**.nic.phy80211p.usePropagationDelay = true

#*.**.nic.phy80211p.antenna = xmldoc("anten/..na.xml", "/root/Antenna[@id='monopole']")

##########################################################
#                    WaveAppLayer                        #
##########################################################
#*.node[*].applType = "veinstutorial.src.TutorialAppl"
*.node[*].applType = "veins_manhattan.src.MyApplicaton"
*.node[*].appl.headerLength = 80 bit
*.node[*].appl.sendBeacons = true
*.node[*].appl.dataOnSch = false
*.node[*].appl.beaconInterval = 1s

##########################################################
#                      Mobility                          #
##########################################################
*.node[*].veinsmobilityType.debug = true
*.node[*].veinsmobility.x = 0
*.node[*].veinsmobility.y = 0
*.node[*].veinsmobility.z = 1.895


[Config Default]

[Config WithBeaconing]
*.rsu[*].appl.sendBeacons = true
*.node[*].appl.sendBeacons = true

[Config WithChannelSwitching]
*.**.nic.mac1609_4.useServiceChannel = true
*.node[*].appl.dataOnSch = true
*.rsu[*].appl.dataOnSch = true